FRASE_4ZT8_CYT_fragment_1_0_ILEA156ARGA164ILEA168
     RDKit          3D

  8  8  0  0  0  0  0  0  0  0999 V2000
   25.8800    9.7130   92.0910 N   0  0  0  0  0  0  0  0  0  0  0  0
   26.6690   10.4870   91.3340 C   0  0  0  0  0  0  0  0  0  0  0  0
   27.6470    9.3520   93.6100 N   0  0  0  0  0  0  0  0  0  0  0  0
   26.3680    9.1550   93.2150 C   0  0  0  0  0  0  0  0  0  0  0  0
   25.6350    8.4340   93.9180 O   0  0  0  0  0  0  0  0  0  0  0  0
   26.2410   11.0830   90.1940 N   0  0  0  0  0  0  0  0  0  0  0  0
   27.9720   10.7030   91.7350 C   0  0  0  0  0  0  0  0  0  0  0  0
   28.4630   10.1210   92.8850 C   0  0  0  0  0  0  0  0  0  0  0  0
  1  2  1  0
  1  4  1  0
  2  6  1  0
  2  7  2  0
  3  4  1  0
  3  8  2  0
  4  5  2  0
  7  8  1  0
M  END
>  <PDBID_FRAGID>  (1) 
FRASE_4ZT8_CYT_fragment_1

>  <triplet_in_target>  (1) 
ILEA156ARGA164ILEA168

$$$$
FRASE_5G6K_M94_fragment_2_0_HISA31ALAA51PHEA91
     RDKit          3D

 13 14  0  0  0  0  0  0  0  0999 V2000
   -3.2900    6.7950   59.4530 O   0  0  0  0  0  0  0  0  0  0  0  0
   -4.5520    6.5450   60.1110 C   0  0  0  0  0  0  0  0  0  0  0  0
   -4.5740    4.6750   63.4630 C   0  0  0  0  0  0  0  0  0  0  0  0
   -4.9850    5.1640   62.2220 C   0  0  0  0  0  0  0  0  0  0  0  0
   -4.1470    5.9930   61.4710 C   0  0  0  0  0  0  0  0  0  0  0  0
   -2.8750    6.3010   61.9820 C   0  0  0  0  0  0  0  0  0  0  0  0
   -2.4470    5.8010   63.2220 C   0  0  0  0  0  0  0  0  0  0  0  0
   -3.3020    4.9820   63.9700 C   0  0  0  0  0  0  0  0  0  0  0  0
   -2.9060    4.4780   65.2050 C   0  0  0  0  0  0  0  0  0  0  0  0
   -3.7640    3.6470   65.9170 C   0  0  0  0  0  0  0  0  0  0  0  0
   -5.0450    3.3690   65.3870 C   0  0  0  0  0  0  0  0  0  0  0  0
   -5.9290    2.5750   66.0660 N   0  0  0  0  0  0  0  0  0  0  0  0
   -5.4210    3.8970   64.1890 N   0  0  0  0  0  0  0  0  0  0  0  0
  1  2  1  0
  2  5  1  0
  3  4  2  0
  3  8  1  0
  3 13  1  0
  4  5  1  0
  5  6  2  0
  6  7  1  0
  7  8  2  0
  8  9  1  0
  9 10  2  0
 10 11  1  0
 11 12  1  0
 11 13  2  0
M  END
>  <PDBID_FRAGID>  (1) 
FRASE_5G6K_M94_fragment_2

>  <triplet_in_target>  (1) 
HISA31ALAA51PHEA91

$$$$
FRASE_5FHR_DNC_fragment_1_0_SERA129SERA147LEUA152
     RDKit          3D

 14 14  0  0  0  0  0  0  0  0999 V2000
   28.2670   -0.1510   89.2250 C   0  0  0  0  0  0  0  0  0  0  0  0
   28.5800   -0.6930   88.0040 O   0  0  0  0  0  0  0  0  0  0  0  0
   27.6770   -0.9790   90.1640 C   0  0  0  0  0  0  0  0  0  0  0  0
   27.4500   -2.2880   89.8130 O   0  0  0  0  0  0  0  0  0  0  0  0
   27.3780   -0.4980   91.4260 C   0  0  0  0  0  0  0  0  0  0  0  0
   26.7660   -1.3370   92.4080 N   0  0  0  0  0  0  0  0  0  0  0  0
   26.6060   -0.9000   93.6200 O   0  0  0  0  0  0  0  0  0  0  0  0
   26.3630   -2.5220   92.1100 O   0  0  0  0  0  0  0  0  0  0  0  0
   27.6540    0.8260   91.7590 C   0  0  0  0  0  0  0  0  0  0  0  0
   28.2440    1.6550   90.8120 C   0  0  0  0  0  0  0  0  0  0  0  0
   28.5770    2.9930   91.1710 N   0  0  0  0  0  0  0  0  0  0  0  0
   29.2590    3.7050   90.3460 O   0  0  0  0  0  0  0  0  0  0  0  0
   28.3000    3.4760   92.3480 O   0  0  0  0  0  0  0  0  0  0  0  0
   28.5640    1.1710   89.5460 C   0  0  0  0  0  0  0  0  0  0  0  0
  1  2  1  0
  1  3  2  0
  1 14  1  0
  3  4  1  0
  3  5  1  0
  5  6  1  0
  5  9  2  0
  6  7  2  0
  6  8  1  0
  9 10  1  0
 10 11  1  0
 10 14  2  0
 11 12  2  0
 11 13  1  0
M  CHG  4   6   1   8  -1  11   1  13  -1
M  END
>  <PDBID_FRAGID>  (1) 
FRASE_5FHR_DNC_fragment_1

>  <triplet_in_target>  (1) 
SERA129SERA147LEUA152

$$$$
FRASE_3WHA_WHA_fragment_2_0_ILEA73ASPA90VALA97
     RDKit          3D

 14 14  0  0  0  0  0  0  0  0999 V2000
    8.0650    8.2920   74.0080 C   0  0  0  0  0  0  0  0  0  0  0  0
    6.8910    8.7750   74.4650 N   0  0  0  0  0  0  0  0  0  0  0  0
    8.0810    7.5190   72.8930 N   0  0  0  0  0  0  0  0  0  0  0  0
    6.9510    7.2420   72.2520 C   0  0  0  0  0  0  0  0  0  0  0  0
    7.0200    6.5390   71.1500 N   0  0  0  0  0  0  0  0  0  0  0  0
    5.7840    7.7510   72.6690 N   0  0  0  0  0  0  0  0  0  0  0  0
    5.7580    8.4720   73.8040 C   0  0  0  0  0  0  0  0  0  0  0  0
    4.2320    9.0930   74.2970 S   0  0  0  0  0  0  0  0  0  0  0  0
    4.5780    9.6440   76.0150 C   0  0  0  0  0  0  0  0  0  0  0  0
    4.6650    8.4820   77.0000 C   0  0  0  0  0  0  0  0  0  0  0  0
    3.2880    7.8470   77.2390 C   0  0  0  0  0  0  0  0  0  0  0  0
    3.3430    6.6780   78.1820 C   0  0  0  0  0  0  0  0  0  0  0  0
    2.8820    6.7740   79.3240 O   0  0  0  0  0  0  0  0  0  0  0  0
    3.8770    5.5820   77.6710 N   0  0  0  0  0  0  0  0  0  0  0  0
  1  2  2  0
  1  3  1  0
  2  7  1  0
  3  4  2  0
  4  5  1  0
  4  6  1  0
  6  7  2  0
  7  8  1  0
  8  9  1  0
  9 10  1  0
 10 11  1  0
 11 12  1  0
 12 13  2  0
 12 14  1  0
M  END
>  <PDBID_FRAGID>  (1) 
FRASE_3WHA_WHA_fragment_2

>  <triplet_in_target>  (1) 
ILEA73ASPA90VALA97

$$$$
FRASE_4EJJ_NCT_fragment_1_0_ILEA73PHEA112PHEA117
     RDKit          3D

  6  6  0  0  0  0  0  0  0  0999 V2000
    7.8680    5.4690   76.2390 N   0  0  0  0  0  0  0  0  0  0  0  0
    7.2140    5.4140   77.4050 C   0  0  0  0  0  0  0  0  0  0  0  0
    7.5470    4.4140   78.3120 C   0  0  0  0  0  0  0  0  0  0  0  0
    8.5520    3.4800   78.0470 C   0  0  0  0  0  0  0  0  0  0  0  0
    9.2050    3.5780   76.8340 C   0  0  0  0  0  0  0  0  0  0  0  0
    8.8450    4.5930   75.9410 C   0  0  0  0  0  0  0  0  0  0  0  0
  1  2  2  0
  1  6  1  0
  2  3  1  0
  3  4  2  0
  4  5  1  0
  5  6  2  0
M  END
>  <PDBID_FRAGID>  (1) 
FRASE_4EJJ_NCT_fragment_1

>  <triplet_in_target>  (1) 
ILEA73PHEA112PHEA117

$$$$
FRASE_6X0C_BZI_fragment_1_0_LEUA28PHEA34VALA45
     RDKit          3D

  9 10  0  0  0  0  0  0  0  0999 V2000
   -3.0440   -2.5580   50.1040 N   0  0  0  0  0  0  0  0  0  0  0  0
   -2.9900   -3.5950   50.9550 C   0  0  0  0  0  0  0  0  0  0  0  0
   -2.2610   -3.3610   52.0300 N   0  0  0  0  0  0  0  0  0  0  0  0
   -1.7850   -2.0490   51.8580 C   0  0  0  0  0  0  0  0  0  0  0  0
   -0.9680   -1.2640   52.6590 C   0  0  0  0  0  0  0  0  0  0  0  0
   -0.6600    0.0040   52.2190 C   0  0  0  0  0  0  0  0  0  0  0  0
   -1.1790    0.5040   51.0250 C   0  0  0  0  0  0  0  0  0  0  0  0
   -1.9790   -0.2660   50.2090 C   0  0  0  0  0  0  0  0  0  0  0  0
   -2.2810   -1.5460   50.6510 C   0  0  0  0  0  0  0  0  0  0  0  0
  1  2  1  0
  1  9  1  0
  2  3  2  0
  3  4  1  0
  4  5  1  0
  4  9  2  0
  5  6  2  0
  6  7  1  0
  7  8  2  0
  8  9  1  0
M  END
>  <PDBID_FRAGID>  (1) 
FRASE_6X0C_BZI_fragment_1

>  <triplet_in_target>  (1) 
LEUA28PHEA34VALA45

$$$$
FRASE_5G6Q_TUE_fragment_1_0_HISA31ALAA51PHEA91
     RDKit          3D

 13 14  0  0  0  0  0  0  0  0999 V2000
   -5.4440    3.3890   64.2760 N   0  0  0  0  0  0  0  0  0  0  0  0
   -5.1720    2.8740   65.4930 C   0  0  0  0  0  0  0  0  0  0  0  0
   -6.0640    2.0390   66.0840 N   0  0  0  0  0  0  0  0  0  0  0  0
   -3.9820    3.1890   66.1390 C   0  0  0  0  0  0  0  0  0  0  0  0
   -3.0770    4.0510   65.5280 C   0  0  0  0  0  0  0  0  0  0  0  0
   -3.3820    4.5710   64.2740 C   0  0  0  0  0  0  0  0  0  0  0  0
   -2.4990    5.4310   63.6330 C   0  0  0  0  0  0  0  0  0  0  0  0
   -2.8160    5.9440   62.3790 C   0  0  0  0  0  0  0  0  0  0  0  0
   -4.0140    5.5960   61.7640 C   0  0  0  0  0  0  0  0  0  0  0  0
   -4.8950    4.7350   62.4070 C   0  0  0  0  0  0  0  0  0  0  0  0
   -4.5810    4.2240   63.6610 C   0  0  0  0  0  0  0  0  0  0  0  0
   -4.3660    6.1480   60.4010 C   0  0  0  0  0  0  0  0  0  0  0  0
   -3.1550    6.4100   59.6990 O   0  0  0  0  0  0  0  0  0  0  0  0
  1  2  2  0
  1 11  1  0
  2  3  1  0
  2  4  1  0
  4  5  2  0
  5  6  1  0
  6  7  1  0
  6 11  2  0
  7  8  2  0
  8  9  1  0
  9 10  2  0
  9 12  1  0
 10 11  1  0
 12 13  1  0
M  END
>  <PDBID_FRAGID>  (1) 
FRASE_5G6Q_TUE_fragment_1

>  <triplet_in_target>  (1) 
HISA31ALAA51PHEA91

$$$$
FRASE_3PAO_ADE_fragment_1_0_GLUA126ASNA133ILEA153
     RDKit          3D

 10 11  0  0  0  0  0  0  0  0999 V2000
   19.0560    6.6040   81.4930 N   0  0  0  0  0  0  0  0  0  0  0  0
   20.1030    7.4760   81.6560 C   0  0  0  0  0  0  0  0  0  0  0  0
   21.2890    6.9060   81.6090 N   0  0  0  0  0  0  0  0  0  0  0  0
   21.0010    5.5700   81.3970 C   0  0  0  0  0  0  0  0  0  0  0  0
   21.8190    4.4340   81.2460 C   0  0  0  0  0  0  0  0  0  0  0  0
   23.1550    4.4660   81.2980 N   0  0  0  0  0  0  0  0  0  0  0  0
   21.2050    3.2500   81.0550 N   0  0  0  0  0  0  0  0  0  0  0  0
   19.8730    3.2070   81.0130 C   0  0  0  0  0  0  0  0  0  0  0  0
   19.0070    4.2030   81.1390 N   0  0  0  0  0  0  0  0  0  0  0  0
   19.6370    5.3680   81.3320 C   0  0  0  0  0  0  0  0  0  0  0  0
  1  2  1  0
  1 10  1  0
  2  3  2  0
  3  4  1  0
  4  5  1  0
  4 10  2  0
  5  6  1  0
  5  7  2  0
  7  8  1  0
  8  9  2  0
  9 10  1  0
M  END
>  <PDBID_FRAGID>  (1) 
FRASE_3PAO_ADE_fragment_1

>  <triplet_in_target>  (1) 
GLUA126ASNA133ILEA153

$$$$
FRASE_7BCD_T9Z_fragment_1_0_LEUA28PHEA34VALA45
     RDKit          3D

  7  7  0  0  0  0  0  0  0  0999 V2000
    0.1860   -0.2960   51.8020 C   0  0  0  0  0  0  0  0  0  0  0  0
   -2.0810   -1.1290   51.6000 C   0  0  0  0  0  0  0  0  0  0  0  0
    0.2380   -3.4370   49.8120 C   0  0  0  0  0  0  0  0  0  0  0  0
    0.6540   -1.4370   50.9130 C   0  0  0  0  0  0  0  0  0  0  0  0
   -1.5690   -2.2170   50.6710 C   0  0  0  0  0  0  0  0  0  0  0  0
   -0.1970   -2.5690   50.9400 N   0  0  0  0  0  0  0  0  0  0  0  0
   -1.2160   -0.0010   51.6710 O   0  0  0  0  0  0  0  0  0  0  0  0
  1  4  1  0
  1  7  1  0
  2  5  1  0
  2  7  1  0
  3  6  1  0
  4  6  1  0
  5  6  1  0
M  END
>  <PDBID_FRAGID>  (1) 
FRASE_7BCD_T9Z_fragment_1

>  <triplet_in_target>  (1) 
LEUA28PHEA34VALA45

$$$$
FRASE_6Q0Z_P7V_fragment_1_0_PHEA115ASPA120LEUA170
     RDKit          3D

  6  6  0  0  0  0  0  0  0  0999 V2000
   11.2050    8.7890   78.7610 C   0  0  0  0  0  0  0  0  0  0  0  0
   10.0550    9.3660   79.5110 C   0  0  0  0  0  0  0  0  0  0  0  0
    8.7270    9.0160   79.4710 C   0  0  0  0  0  0  0  0  0  0  0  0
    8.9490   10.5890   80.9140 C   0  0  0  0  0  0  0  0  0  0  0  0
   10.1820   10.3990   80.4660 N   0  0  0  0  0  0  0  0  0  0  0  0
    8.0180    9.7880   80.3380 O   0  0  0  0  0  0  0  0  0  0  0  0
  1  2  1  0
  2  3  2  0
  2  5  1  0
  3  6  1  0
  4  5  2  0
  4  6  1  0
M  END
>  <PDBID_FRAGID>  (1) 
FRASE_6Q0Z_P7V_fragment_1

>  <triplet_in_target>  (1) 
PHEA115ASPA120LEUA170

$$$$
FRASE_5HZ9_5M8_fragment_7_0_PHEA77LEUA92VALA97
     RDKit          3D

 13 14  0  0  0  0  0  0  0  0999 V2000
   13.9440    2.7450   64.5580 C   0  0  0  0  0  0  0  0  0  0  0  0
   11.7550    2.2650   63.9000 C   0  0  0  0  0  0  0  0  0  0  0  0
   15.2570    1.0820   65.9260 C   0  0  0  0  0  0  0  0  0  0  0  0
   10.6400    0.1520   64.5100 C   0  0  0  0  0  0  0  0  0  0  0  0
   14.0240    1.4700   65.2430 C   0  0  0  0  0  0  0  0  0  0  0  0
   12.9670    0.6020   65.2340 C   0  0  0  0  0  0  0  0  0  0  0  0
   11.7740    0.9950   64.5530 C   0  0  0  0  0  0  0  0  0  0  0  0
   12.8440    3.1270   63.9110 N   0  0  0  0  0  0  0  0  0  0  0  0
   10.5610    2.6430   63.2000 C   0  0  0  0  0  0  0  0  0  0  0  0
    9.5140    0.5560   63.8310 C   0  0  0  0  0  0  0  0  0  0  0  0
    9.4700    1.8090   63.1720 C   0  0  0  0  0  0  0  0  0  0  0  0
    8.1670   -0.4650   63.7530 Cl  0  0  0  0  0  0  0  0  0  0  0  0
   15.1570    3.6280   64.5890 C   0  0  0  0  0  0  0  0  0  0  0  0
  1  5  1  0
  1  8  1  0
  1 13  1  0
  2  7  1  0
  2  8  1  0
  2  9  1  0
  3  5  1  0
  4  7  1  0
  4 10  1  0
  5  6  1  0
  6  7  1  0
  9 11  1  0
 10 11  1  0
 10 12  1  0
M  END
>  <PDBID_FRAGID>  (1) 
FRASE_5HZ9_5M8_fragment_7

>  <triplet_in_target>  (1) 
PHEA77LEUA92VALA97

$$$$
FRASE_4FT0_HK9_fragment_2_0_SERA48VALA53GLUA89
     RDKit          3D

 11 11  0  0  0  0  0  0  0  0999 V2000
   -3.2160    2.2780   69.4780 C   0  0  0  0  0  0  0  0  0  0  0  0
   -3.2670    1.9320   68.1150 C   0  0  0  0  0  0  0  0  0  0  0  0
   -4.3880    2.8060   70.1010 C   0  0  0  0  0  0  0  0  0  0  0  0
   -5.5640    2.9720   69.3670 C   0  0  0  0  0  0  0  0  0  0  0  0
   -5.6220    2.6280   67.9920 C   0  0  0  0  0  0  0  0  0  0  0  0
   -6.9070    2.9360   67.2420 C   0  0  0  0  0  0  0  0  0  0  0  0
   -7.4530    4.0250   67.5130 O   0  0  0  0  0  0  0  0  0  0  0  0
   -7.2950    2.0950   66.4200 O   0  0  0  0  0  0  0  0  0  0  0  0
   -4.4700    2.0870   67.3740 C   0  0  0  0  0  0  0  0  0  0  0  0
   -4.5320    1.6900   66.0300 O   0  0  0  0  0  0  0  0  0  0  0  0
   -3.4770    0.9040   65.4970 C   0  0  0  0  0  0  0  0  0  0  0  0
  1  2  2  0
  1  3  1  0
  2  9  1  0
  3  4  2  0
  4  5  1  0
  5  6  1  0
  5  9  2  0
  6  7  2  0
  6  8  1  0
  9 10  1  0
 10 11  1  0
M  END
>  <PDBID_FRAGID>  (1) 
FRASE_4FT0_HK9_fragment_2

>  <triplet_in_target>  (1) 
SERA48VALA53GLUA89

$$$$
FRASE_4KAJ_1Q9_fragment_1_0_ILEA114ASPA120LEUA170
     RDKit          3D

  6  6  0  0  0  0  0  0  0  0999 V2000
    9.1370    8.9740   79.0980 C   0  0  0  0  0  0  0  0  0  0  0  0
    7.9890    9.2680   79.9610 N   0  0  0  0  0  0  0  0  0  0  0  0
    9.2530    7.5750   78.8800 N   0  0  0  0  0  0  0  0  0  0  0  0
    8.2780    7.0000   79.5270 N   0  0  0  0  0  0  0  0  0  0  0  0
    7.4280    8.0970   80.2440 N   0  0  0  0  0  0  0  0  0  0  0  0
    9.9760    9.9470   78.5840 N   0  0  0  0  0  0  0  0  0  0  0  0
  1  2  2  0
  1  3  1  0
  1  6  1  0
  2  5  1  0
  3  4  1  0
  4  5  2  0
M  END
>  <PDBID_FRAGID>  (1) 
FRASE_4KAJ_1Q9_fragment_1

>  <triplet_in_target>  (1) 
ILEA114ASPA120LEUA170

$$$$
FRASE_7YWV_EOL_fragment_1_0_ILEA58ILEA73SERA85
     RDKit          3D

 12 12  0  0  0  0  0  0  0  0999 V2000
    7.7580   -7.3980   71.9520 C   0  0  0  0  0  0  0  0  0  0  0  0
    9.2430   -9.5970   69.4650 O   0  0  0  0  0  0  0  0  0  0  0  0
    8.8750   -6.7520   72.4330 C   0  0  0  0  0  0  0  0  0  0  0  0
    6.9420   -9.0450   70.3570 O   0  0  0  0  0  0  0  0  0  0  0  0
    7.9360   -8.3410   70.9410 C   0  0  0  0  0  0  0  0  0  0  0  0
   10.1520   -7.0640   71.8970 C   0  0  0  0  0  0  0  0  0  0  0  0
    9.1980   -8.6500   70.4370 C   0  0  0  0  0  0  0  0  0  0  0  0
   10.3350   -8.0130   70.9010 C   0  0  0  0  0  0  0  0  0  0  0  0
    8.6730   -5.6890   73.5360 C   0  0  0  0  0  0  0  0  0  0  0  0
    9.9810   -4.8380   73.6570 C   0  0  0  0  0  0  0  0  0  0  0  0
    9.7880   -3.4400   74.2870 C   0  0  0  0  0  0  0  0  0  0  0  0
    5.5900   -8.5740   70.4240 C   0  0  0  0  0  0  0  0  0  0  0  0
  1  3  2  0
  1  5  1  0
  2  7  1  0
  3  6  1  0
  3  9  1  0
  4  5  1  0
  4 12  1  0
  5  7  2  0
  6  8  2  0
  7  8  1  0
  9 10  1  0
 10 11  2  0
M  END
>  <PDBID_FRAGID>  (1) 
FRASE_7YWV_EOL_fragment_1

>  <triplet_in_target>  (1) 
ILEA58ILEA73SERA85

$$$$
FRASE_7ULJ_42C_fragment_1_0_ASPA161LEUA170VALA176
     RDKit          3D

 12 13  0  0  0  0  0  0  0  0999 V2000
   20.7040   22.9210   85.0840 C   0  0  0  0  0  0  0  0  0  0  0  0
   20.5700   21.5530   84.7960 C   0  0  0  0  0  0  0  0  0  0  0  0
   19.3000   21.1280   84.2480 C   0  0  0  0  0  0  0  0  0  0  0  0
   18.5440   23.2190   84.3340 C   0  0  0  0  0  0  0  0  0  0  0  0
   20.5590   19.3570   84.4070 C   0  0  0  0  0  0  0  0  0  0  0  0
   21.9380   24.9040   85.9710 C   0  0  0  0  0  0  0  0  0  0  0  0
   23.0680   22.5340   85.8170 C   0  0  0  0  0  0  0  0  0  0  0  0
   21.9140   23.4620   85.6310 N   0  0  0  0  0  0  0  0  0  0  0  0
   19.6830   23.7750   84.8550 N   0  0  0  0  0  0  0  0  0  0  0  0
   18.2550   21.9570   84.0030 N   0  0  0  0  0  0  0  0  0  0  0  0
   19.3200   19.7430   84.0150 N   0  0  0  0  0  0  0  0  0  0  0  0
   21.3520   20.4000   84.8840 N   0  0  0  0  0  0  0  0  0  0  0  0
  1  2  2  0
  1  8  1  0
  1  9  1  0
  2  3  1  0
  2 12  1  0
  3 10  2  0
  3 11  1  0
  4  9  2  0
  4 10  1  0
  5 11  2  0
  5 12  1  0
  6  8  1  0
  7  8  1  0
M  END
>  <PDBID_FRAGID>  (1) 
FRASE_7ULJ_42C_fragment_1

>  <triplet_in_target>  (1) 
ASPA161LEUA170VALA176

$$$$
FRASE_7LW8_IMD_fragment_1_0_VALA53THRA79PHEA91
     RDKit          3D

  5  5  0  0  0  0  0  0  0  0999 V2000
    4.6600    1.8450   70.2030 N   0  0  0  0  0  0  0  0  0  0  0  0
    3.6720    1.9020   69.2820 C   0  0  0  0  0  0  0  0  0  0  0  0
    3.0450    0.7060   69.2430 N   0  0  0  0  0  0  0  0  0  0  0  0
    3.6400   -0.1080   70.1390 C   0  0  0  0  0  0  0  0  0  0  0  0
    4.6600    0.6100   70.7470 C   0  0  0  0  0  0  0  0  0  0  0  0
  1  2  1  0
  1  5  1  0
  2  3  2  0
  3  4  1  0
  4  5  2  0
M  END
>  <PDBID_FRAGID>  (1) 
FRASE_7LW8_IMD_fragment_1

>  <triplet_in_target>  (1) 
VALA53THRA79PHEA91

$$$$
FRASE_2A7P_3IL_fragment_1_0_ILEA114LEUA123LEUA170
     RDKit          3D

 15 16  0  0  0  0  0  0  0  0999 V2000
   10.4130    9.5140   83.1890 N   0  0  0  0  0  0  0  0  0  0  0  0
   10.0020    8.3350   82.5270 C   0  0  0  0  0  0  0  0  0  0  0  0
    8.7540    8.4820   81.8790 C   0  0  0  0  0  0  0  0  0  0  0  0
    7.1850   10.5570   81.7580 C   0  0  0  0  0  0  0  0  0  0  0  0
    7.0750   11.9100   82.1920 C   0  0  0  0  0  0  0  0  0  0  0  0
    8.0970   12.5120   82.9870 C   0  0  0  0  0  0  0  0  0  0  0  0
    9.2570   11.7770   83.3690 C   0  0  0  0  0  0  0  0  0  0  0  0
    9.3870   10.4080   82.9400 C   0  0  0  0  0  0  0  0  0  0  0  0
    8.3570    9.7940   82.1380 C   0  0  0  0  0  0  0  0  0  0  0  0
    6.1580    5.6110   80.9310 C   0  0  0  0  0  0  0  0  0  0  0  0
    5.9060    5.6960   79.7110 O   0  0  0  0  0  0  0  0  0  0  0  0
    5.9700    4.5450   81.5770 O   0  0  0  0  0  0  0  0  0  0  0  0
    6.7110    6.8500   81.6660 C   0  0  1  0  0  0  0  0  0  0  0  0
    6.9040    6.4790   83.0290 O   0  0  0  0  0  0  0  0  0  0  0  0
    8.0610    7.3610   81.0800 C   0  0  0  0  0  0  0  0  0  0  0  0
  1  2  1  0
  1  8  1  0
  2  3  2  0
  3  9  1  0
  3 15  1  0
  4  5  1  0
  4  9  2  0
  5  6  2  0
  6  7  1  0
  7  8  2  0
  8  9  1  0
 10 11  2  0
 10 12  1  0
 10 13  1  0
 13 14  1  1
 13 15  1  0
M  END
>  <PDBID_FRAGID>  (1) 
FRASE_2A7P_3IL_fragment_1

>  <triplet_in_target>  (1) 
ILEA114LEUA123LEUA170

$$$$
FRASE_7XYH_8BH_fragment_1_0_HISA31LEUA37SERA48
     RDKit          3D

 12 13  0  0  0  0  0  0  0  0999 V2000
   -0.4060   -4.2670   50.7320 C   0  0  0  0  0  0  0  0  0  0  0  0
    0.2710   -5.4980   50.4230 C   0  0  0  0  0  0  0  0  0  0  0  0
    0.1840   -3.0210   50.3280 C   0  0  0  0  0  0  0  0  0  0  0  0
    1.5180   -5.5180   49.7830 C   0  0  0  0  0  0  0  0  0  0  0  0
    1.4550   -3.0100   49.6690 C   0  0  0  0  0  0  0  0  0  0  0  0
    2.0920   -4.2570   49.4440 C   0  0  0  0  0  0  0  0  0  0  0  0
   -1.6810   -4.7580   51.4050 C   0  0  0  0  0  0  0  0  0  0  0  0
   -1.6860   -6.1890   51.4710 C   0  0  0  0  0  0  0  0  0  0  0  0
   -2.8460   -4.0050   51.9400 C   0  0  0  0  0  0  0  0  0  0  0  0
   -3.1980   -4.1510   53.2900 C   0  0  0  0  0  0  0  0  0  0  0  0
   -2.2450   -4.9990   54.2060 C   0  0  0  0  0  0  0  0  0  0  0  0
   -0.5600   -6.4750   50.8940 N   0  0  0  0  0  0  0  0  0  0  0  0
  1  2  1  0
  1  3  2  0
  1  7  1  0
  2  4  2  0
  2 12  1  0
  3  5  1  0
  4  6  1  0
  5  6  2  0
  7  8  2  0
  7  9  1  0
  8 12  1  0
  9 10  2  3
 10 11  1  0
M  END
>  <PDBID_FRAGID>  (1) 
FRASE_7XYH_8BH_fragment_1

>  <triplet_in_target>  (1) 
HISA31LEUA37SERA48

$$$$
FRASE_1XE8_ADE_fragment_1_0_LEUA64ARGA72LEUA94
     RDKit          3D

 10 11  0  0  0  0  0  0  0  0999 V2000
   14.4160    7.2070   72.2330 N   0  0  0  0  0  0  0  0  0  0  0  0
   13.3060    6.5480   71.7690 C   0  0  0  0  0  0  0  0  0  0  0  0
   13.5820    5.4700   71.0710 N   0  0  0  0  0  0  0  0  0  0  0  0
   14.9690    5.4180   71.0740 C   0  0  0  0  0  0  0  0  0  0  0  0
   15.8890    4.5140   70.4960 C   0  0  0  0  0  0  0  0  0  0  0  0
   15.5300    3.4610   69.7540 N   0  0  0  0  0  0  0  0  0  0  0  0
   17.2090    4.7420   70.7020 N   0  0  0  0  0  0  0  0  0  0  0  0
   17.5670    5.8120   71.4240 C   0  0  0  0  0  0  0  0  0  0  0  0
   16.8000    6.7380   72.0010 N   0  0  0  0  0  0  0  0  0  0  0  0
   15.4970    6.4790   71.7890 C   0  0  0  0  0  0  0  0  0  0  0  0
  1  2  1  0
  1 10  1  0
  2  3  2  0
  3  4  1  0
  4  5  1  0
  4 10  2  0
  5  6  1  0
  5  7  2  0
  7  8  1  0
  8  9  2  0
  9 10  1  0
M  END
>  <PDBID_FRAGID>  (1) 
FRASE_1XE8_ADE_fragment_1

>  <triplet_in_target>  (1) 
LEUA64ARGA72LEUA94

$$$$
FRASE_1MUD_ADE_fragment_1_0_ILEA58ILEA73ASPA84
     RDKit          3D

 10 11  0  0  0  0  0  0  0  0999 V2000
   10.1230   -4.6610   75.9180 N   0  0  0  0  0  0  0  0  0  0  0  0
   10.9230   -5.7690   76.0230 C   0  0  0  0  0  0  0  0  0  0  0  0
   10.7850   -6.6180   75.0240 N   0  0  0  0  0  0  0  0  0  0  0  0
    9.8780   -5.9880   74.1760 C   0  0  0  0  0  0  0  0  0  0  0  0
    9.3250   -6.3640   72.9450 C   0  0  0  0  0  0  0  0  0  0  0  0
    9.6250   -7.4950   72.2970 N   0  0  0  0  0  0  0  0  0  0  0  0
    8.4330   -5.5140   72.3690 N   0  0  0  0  0  0  0  0  0  0  0  0
    8.1180   -4.3880   73.0150 C   0  0  0  0  0  0  0  0  0  0  0  0
    8.5810   -3.9250   74.1840 N   0  0  0  0  0  0  0  0  0  0  0  0
    9.4590   -4.7820   74.7210 C   0  0  0  0  0  0  0  0  0  0  0  0
  1  2  1  0
  1 10  1  0
  2  3  2  0
  3  4  1  0
  4  5  1  0
  4 10  2  0
  5  6  1  0
  5  7  2  0
  7  8  1  0
  8  9  2  0
  9 10  1  0
M  END
>  <PDBID_FRAGID>  (1) 
FRASE_1MUD_ADE_fragment_1

>  <triplet_in_target>  (1) 
ILEA58ILEA73ASPA84

$$$$
FRASE_2WF3_ZY3_fragment_3_0_ILEA114ASPA118THRA122
     RDKit          3D

 13 13  0  0  0  0  0  0  0  0999 V2000
   10.9630    9.5720   80.7550 C   0  0  0  0  0  0  0  0  0  0  0  0
   10.3130    8.9590   79.6240 O   0  0  0  0  0  0  0  0  0  0  0  0
   10.0730    9.3030   81.9800 C   0  0  0  0  0  0  0  0  0  0  0  0
    9.7930    7.8500   82.0330 N   0  0  0  0  0  0  0  0  0  0  0  0
    8.6070    7.2550   82.6880 C   0  0  0  0  0  0  0  0  0  0  0  0
    7.3100    7.9530   82.2860 C   0  0  0  0  0  0  0  0  0  0  0  0
    6.8100    7.8290   80.9960 C   0  0  0  0  0  0  0  0  0  0  0  0
    5.6460    8.5080   80.6400 C   0  0  0  0  0  0  0  0  0  0  0  0
    5.1610    8.3860   79.3700 O   0  0  0  0  0  0  0  0  0  0  0  0
    5.7750    7.4500   78.5210 C   0  0  0  0  0  0  0  0  0  0  0  0
    4.9670    9.2800   81.5600 C   0  0  0  0  0  0  0  0  0  0  0  0
    5.4490    9.4020   82.8450 C   0  0  0  0  0  0  0  0  0  0  0  0
    6.6370    8.7640   83.2110 C   0  0  0  0  0  0  0  0  0  0  0  0
  1  2  1  0
  1  3  1  0
  3  4  1  0
  4  5  1  0
  5  6  1  0
  6  7  2  0
  6 13  1  0
  7  8  1  0
  8  9  1  0
  8 11  2  0
  9 10  1  0
 11 12  1  0
 12 13  2  0
M  END
>  <PDBID_FRAGID>  (1) 
FRASE_2WF3_ZY3_fragment_3

>  <triplet_in_target>  (1) 
ILEA114ASPA118THRA122

$$$$
FRASE_5SAV_1IJ_fragment_1_0_LEUA28PHEA34VALA45
     RDKit          3D

  8  8  0  0  0  0  0  0  0  0999 V2000
    0.0480   -2.9540   51.1040 C   0  0  0  0  0  0  0  0  0  0  0  0
    2.1920   -2.1080   50.4620 C   0  0  0  0  0  0  0  0  0  0  0  0
    1.8960   -4.3360   50.9850 C   0  0  0  0  0  0  0  0  0  0  0  0
    2.7560   -3.3220   50.5940 N   0  0  0  0  0  0  0  0  0  0  0  0
    0.5410   -4.1820   51.2420 N   0  0  0  0  0  0  0  0  0  0  0  0
    0.8380   -1.8860   50.6830 C   0  0  0  0  0  0  0  0  0  0  0  0
    0.2410   -0.6360   50.6060 O   0  0  0  0  0  0  0  0  0  0  0  0
    2.4060   -5.5500   51.1400 N   0  0  0  0  0  0  0  0  0  0  0  0
  1  5  2  0
  1  6  1  0
  2  4  1  0
  2  6  2  0
  3  4  2  0
  3  5  1  0
  3  8  1  0
  6  7  1  0
M  END
>  <PDBID_FRAGID>  (1) 
FRASE_5SAV_1IJ_fragment_1

>  <triplet_in_target>  (1) 
LEUA28PHEA34VALA45

$$$$
FRASE_5J59_N93_fragment_2_0_VALA53SERA80ASPA90
     RDKit          3D

 14 14  0  0  0  0  0  0  0  0999 V2000
   -4.7970   -5.0220   70.3880 N   0  0  0  0  0  0  0  0  0  0  0  0
   -5.8000   -5.8540   71.0210 C   0  0  0  0  0  0  0  0  0  0  0  0
   -5.0230   -4.6570   68.9910 C   0  0  0  0  0  0  0  0  0  0  0  0
   -5.9160   -3.4550   68.7620 C   0  0  0  0  0  0  0  0  0  0  0  0
   -5.9910   -3.1870   67.3210 N   0  0  0  0  0  0  0  0  0  0  0  0
   -6.8240   -2.0340   66.9520 C   0  0  0  0  0  0  0  0  0  0  0  0
   -6.1340   -0.6940   67.0510 C   0  0  0  0  0  0  0  0  0  0  0  0
   -6.2530    0.0360   68.2180 C   0  0  0  0  0  0  0  0  0  0  0  0
   -5.6120    1.2400   68.3320 C   0  0  0  0  0  0  0  0  0  0  0  0
   -5.7520    2.1120   69.8020 Cl  0  0  0  0  0  0  0  0  0  0  0  0
   -4.8580    1.7740   67.3200 C   0  0  0  0  0  0  0  0  0  0  0  0
   -4.7680    1.0550   66.1600 C   0  0  0  0  0  0  0  0  0  0  0  0
   -3.8940    1.7490   64.8240 Cl  0  0  0  0  0  0  0  0  0  0  0  0
   -5.3800   -0.1700   66.0060 C   0  0  0  0  0  0  0  0  0  0  0  0
  1  2  1  0
  1  3  1  0
  3  4  1  0
  4  5  1  0
  5  6  1  0
  6  7  1  0
  7  8  2  0
  7 14  1  0
  8  9  1  0
  9 10  1  0
  9 11  2  0
 11 12  1  0
 12 13  1  0
 12 14  2  0
M  END
>  <PDBID_FRAGID>  (1) 
FRASE_5J59_N93_fragment_2

>  <triplet_in_target>  (1) 
VALA53SERA80ASPA90

$$$$
FRASE_4PE0_NQS_fragment_1_0_PHEA21ILEA27LEUA94
     RDKit          3D

 16 17  0  0  0  0  0  0  0  0999 V2000
   14.5860    5.7310   59.8450 C   0  0  0  0  0  0  0  0  0  0  0  0
   14.3620    4.3660   59.7170 C   0  0  0  0  0  0  0  0  0  0  0  0
   13.1430    3.8920   59.2480 C   0  0  0  0  0  0  0  0  0  0  0  0
   12.1340    4.7950   58.9260 C   0  0  0  0  0  0  0  0  0  0  0  0
   12.3600    6.1610   59.0500 C   0  0  0  0  0  0  0  0  0  0  0  0
   13.5820    6.6340   59.5140 C   0  0  0  0  0  0  0  0  0  0  0  0
   11.3400    7.0370   58.7080 C   0  0  0  0  0  0  0  0  0  0  0  0
   10.1340    6.5400   58.2670 C   0  0  0  0  0  0  0  0  0  0  0  0
    9.8830    5.1800   58.1270 C   0  0  0  0  0  0  0  0  0  0  0  0
   10.9080    4.3150   58.4570 C   0  0  0  0  0  0  0  0  0  0  0  0
   10.7220    2.9720   58.3290 O   0  0  0  0  0  0  0  0  0  0  0  0
   11.5130    8.3720   58.8150 O   0  0  0  0  0  0  0  0  0  0  0  0
    8.3750    4.5980   57.5420 S   0  0  0  0  0  0  0  0  0  0  0  0
    7.9890    2.9370   57.9760 C   0  0  0  0  0  0  0  0  0  0  0  0
    6.6690    2.5330   57.3270 C   0  0  0  0  0  0  0  0  0  0  0  0
    5.5690    3.0920   58.0570 O   0  0  0  0  0  0  0  0  0  0  0  0
  1  2  2  0
  1  6  1  0
  2  3  1  0
  3  4  2  0
  4  5  1  0
  4 10  1  0
  5  6  2  0
  5  7  1  0
  7  8  1  0
  7 12  2  0
  8  9  2  0
  9 10  1  0
  9 13  1  0
 10 11  2  0
 13 14  1  0
 14 15  1  0
 15 16  1  0
M  END
>  <PDBID_FRAGID>  (1) 
FRASE_4PE0_NQS_fragment_1

>  <triplet_in_target>  (1) 
PHEA21ILEA27LEUA94

$$$$
FRASE_6AK4_PD9_fragment_1_0_ARGA75LEUA94ILEA114
     RDKit          3D

 22 22  0  0  0  0  0  0  0  0999 V2000
    1.9520    7.8130   77.9140 C   0  0  0  0  0  0  0  0  0  0  0  0
    1.7820    7.3120   76.6140 C   0  0  0  0  0  0  0  0  0  0  0  0
    3.1640    7.6450   78.6120 C   0  0  0  0  0  0  0  0  0  0  0  0
    4.0300    6.4620   76.6960 C   0  0  0  0  0  0  0  0  0  0  0  0
    2.8090    6.6140   75.9840 C   0  0  0  0  0  0  0  0  0  0  0  0
    2.6250    6.1360   74.6030 C   0  0  0  0  0  0  0  0  0  0  0  0
    4.0590    7.5220   73.6570 C   0  0  0  0  0  0  0  0  0  0  0  0
    4.6900    8.2220   73.8360 N   0  0  0  0  0  0  0  0  0  0  0  0
    3.0590    6.0570   72.0670 C   0  0  0  0  0  0  0  0  0  0  0  0
    2.2330    5.1300   71.9770 O   0  0  0  0  0  0  0  0  0  0  0  0
    4.7000    7.6130   70.8630 C   0  0  0  0  0  0  0  0  0  0  0  0
    3.4410    5.9360   69.5850 C   0  0  0  0  0  0  0  0  0  0  0  0
    6.0780    7.3080   71.4400 C   0  0  0  0  0  0  0  0  0  0  0  0
    1.1110    9.5960   79.3150 O   0  0  0  0  0  0  0  0  0  0  0  0
    0.8350    8.5390   78.5370 N   0  0  0  0  0  0  0  0  0  0  0  0
   -0.3610    8.1550   78.3260 O   0  0  0  0  0  0  0  0  0  0  0  0
    3.3580    8.1170   79.8490 O   0  0  0  0  0  0  0  0  0  0  0  0
    4.2080    6.9470   77.9600 C   0  0  0  0  0  0  0  0  0  0  0  0
    5.3850    6.7750   78.6260 O   0  0  0  0  0  0  0  0  0  0  0  0
    3.2750    6.6000   73.4980 C   0  0  0  0  0  0  0  0  0  0  0  0
    3.7010    6.4990   70.9240 N   0  0  0  0  0  0  0  0  0  0  0  0
    2.9320    7.0100   68.6290 C   0  0  0  0  0  0  0  0  0  0  0  0
  1  2  2  0
  1  3  1  0
  1 15  1  0
  2  5  1  0
  3 17  1  0
  3 18  2  0
  4  5  2  0
  4 18  1  0
  5  6  1  0
  6 20  2  3
  7  8  3  0
  7 20  1  0
  9 10  2  0
  9 20  1  0
  9 21  1  0
 11 13  1  0
 11 21  1  0
 12 21  1  0
 12 22  1  0
 14 15  2  0
 15 16  1  0
 18 19  1  0
M  CHG  2  15   1  16  -1
M  END
>  <PDBID_FRAGID>  (1) 
FRASE_6AK4_PD9_fragment_1

>  <triplet_in_target>  (1) 
ARGA75LEUA94ILEA114

$$$$
FRASE_6UYB_QSJ_fragment_2_0_LEUA28PHEA34LEUA92
     RDKit          3D

  9  9  0  0  0  0  0  0  0  0999 V2000
   10.3730    7.6930   53.7410 C   0  0  0  0  0  0  0  0  0  0  0  0
   10.3130    6.3950   53.4230 C   0  0  0  0  0  0  0  0  0  0  0  0
    9.4540    5.4090   54.0990 C   0  0  0  0  0  0  0  0  0  0  0  0
    9.0120    4.1600   53.6630 C   0  0  0  0  0  0  0  0  0  0  0  0
    8.1820    3.3570   54.4480 C   0  0  0  0  0  0  0  0  0  0  0  0
    7.7880    3.8190   55.6810 C   0  0  0  0  0  0  0  0  0  0  0  0
    8.1990    5.0420   56.1590 C   0  0  0  0  0  0  0  0  0  0  0  0
    9.0200    5.8190   55.3620 C   0  0  0  0  0  0  0  0  0  0  0  0
    6.7660    2.8780   56.6750 Cl  0  0  0  0  0  0  0  0  0  0  0  0
  1  2  2  0
  2  3  1  0
  3  4  2  0
  3  8  1  0
  4  5  1  0
  5  6  2  0
  6  7  1  0
  6  9  1  0
  7  8  2  0
M  END
>  <PDBID_FRAGID>  (1) 
FRASE_6UYB_QSJ_fragment_2

>  <triplet_in_target>  (1) 
LEUA28PHEA34LEUA92

$$$$
FRASE_4UC9_OD2_fragment_1_0_LEUA157ARGA164GLUA172
     RDKit          3D

 11 11  0  0  0  0  0  0  0  0999 V2000
   30.4490   21.8360   84.7150 N   0  0  0  0  0  0  0  0  0  0  0  0
   29.5630   20.6670   84.6750 C   0  0  2  0  0  0  0  0  0  0  0  0
   30.0640   19.5500   83.7000 C   0  0  0  0  0  0  0  0  0  0  0  0
   30.4720   19.8800   82.5620 O   0  0  0  0  0  0  0  0  0  0  0  0
   28.1130   21.1070   84.3540 C   0  0  0  0  0  0  0  0  0  0  0  0
   27.0720   20.0540   84.6660 C   0  0  0  0  0  0  0  0  0  0  0  0
   26.5450   19.9300   85.9480 C   0  0  0  0  0  0  0  0  0  0  0  0
   26.6600   19.1470   83.6910 C   0  0  0  0  0  0  0  0  0  0  0  0
   25.6090   18.9320   86.2430 C   0  0  0  0  0  0  0  0  0  0  0  0
   25.7300   18.1470   83.9910 C   0  0  0  0  0  0  0  0  0  0  0  0
   25.2010   18.0580   85.2580 C   0  0  0  0  0  0  0  0  0  0  0  0
  2  1  1  6
  2  3  1  0
  2  5  1  0
  3  4  2  0
  5  6  1  0
  6  7  2  0
  6  8  1  0
  7  9  1  0
  8 10  2  0
  9 11  2  0
 10 11  1  0
M  END
>  <PDBID_FRAGID>  (1) 
FRASE_4UC9_OD2_fragment_1

>  <triplet_in_target>  (1) 
LEUA157ARGA164GLUA172

$$$$
FRASE_4EJG_NCT_fragment_2_0_PHEA117THRA122LEUA128
     RDKit          3D

  6  6  0  0  0  0  0  0  0  0999 V2000
   17.4040    8.6400   79.2810 N   0  0  0  0  0  0  0  0  0  0  0  0
   17.1160    8.8070   77.8520 C   0  0  0  0  0  0  0  0  0  0  0  0
   18.5010    8.5870   77.2670 C   0  0  0  0  0  0  0  0  0  0  0  0
   19.4060    9.0880   78.3720 C   0  0  0  0  0  0  0  0  0  0  0  0
   18.5760    9.4170   79.6190 C   0  0  0  0  0  0  0  0  0  0  0  0
   16.6770    7.8430   80.2650 C   0  0  0  0  0  0  0  0  0  0  0  0
  1  2  1  0
  1  5  1  0
  1  6  1  0
  2  3  1  0
  3  4  1  0
  4  5  1  0
M  END
>  <PDBID_FRAGID>  (1) 
FRASE_4EJG_NCT_fragment_2

>  <triplet_in_target>  (1) 
PHEA117THRA122LEUA128

$$$$
FRASE_8CAP_U4O_fragment_3_0_VALA76LEUA94ALAA111
     RDKit          3D

  7  7  0  0  0  0  0  0  0  0999 V2000
    3.4610    9.1130   62.7640 C   0  0  0  0  0  0  0  0  0  0  0  0
    2.3970    9.8930   62.2730 C   0  0  0  0  0  0  0  0  0  0  0  0
    1.4190    9.3330   61.4350 C   0  0  0  0  0  0  0  0  0  0  0  0
    0.3830   10.1330   60.9450 C   0  0  0  0  0  0  0  0  0  0  0  0
    0.3140   11.4890   61.2740 C   0  0  0  0  0  0  0  0  0  0  0  0
    1.2980   12.0310   62.0940 C   0  0  0  0  0  0  0  0  0  0  0  0
    2.3410   11.2140   62.5730 N   0  0  0  0  0  0  0  0  0  0  0  0
  1  2  1  0
  2  3  2  0
  2  7  1  0
  3  4  1  0
  4  5  2  0
  5  6  1  0
  6  7  2  0
M  END
>  <PDBID_FRAGID>  (1) 
FRASE_8CAP_U4O_fragment_3

>  <triplet_in_target>  (1) 
VALA76LEUA94ALAA111

$$$$
FRASE_3TKY_N7I_fragment_1_0_LEUA28PHEA34VALA45
     RDKit          3D

 13 13  0  0  0  0  0  0  0  0999 V2000
   -0.6060   -3.2950   51.4740 C   0  0  0  0  0  0  0  0  0  0  0  0
   -2.0910    0.1850   47.7000 O   0  0  0  0  0  0  0  0  0  0  0  0
    4.0160   -5.2510   50.9530 C   0  0  0  0  0  0  0  0  0  0  0  0
    1.9390   -5.7870   52.5110 O   0  0  0  0  0  0  0  0  0  0  0  0
   -0.0540   -4.4510   52.0190 C   0  0  0  0  0  0  0  0  0  0  0  0
    3.5370   -4.0000   51.4320 O   0  0  0  0  0  0  0  0  0  0  0  0
    1.3460   -4.6600   51.9960 C   0  0  0  0  0  0  0  0  0  0  0  0
    2.1860   -3.7150   51.4280 C   0  0  0  0  0  0  0  0  0  0  0  0
    1.6200   -2.5390   50.8890 C   0  0  0  0  0  0  0  0  0  0  0  0
    0.2280   -2.3320   50.9060 C   0  0  0  0  0  0  0  0  0  0  0  0
   -0.3700   -1.0890   50.3470 C   0  0  0  0  0  0  0  0  0  0  0  0
   -1.4970   -1.0930   49.6390 C   0  0  0  0  0  0  0  0  0  0  0  0
   -2.0240    0.2200   49.1270 C   0  0  0  0  0  0  0  0  0  0  0  0
  1  5  2  0
  1 10  1  0
  2 13  1  0
  3  6  1  0
  4  7  1  0
  5  7  1  0
  6  8  1  0
  7  8  2  0
  8  9  1  0
  9 10  2  0
 10 11  1  0
 11 12  2  3
 12 13  1  0
M  END
>  <PDBID_FRAGID>  (1) 
FRASE_3TKY_N7I_fragment_1

>  <triplet_in_target>  (1) 
LEUA28PHEA34VALA45

$$$$
FRASE_5WVD_7UX_fragment_2_0_LEUA28PHEA34VALA45
     RDKit          3D

  6  6  0  0  0  0  0  0  0  0999 V2000
    0.5990   -0.9710   49.6580 C   0  0  0  0  0  0  0  0  0  0  0  0
   -0.6320   -1.1280   50.2550 C   0  0  0  0  0  0  0  0  0  0  0  0
    0.8030   -3.1250   50.1680 C   0  0  0  0  0  0  0  0  0  0  0  0
    1.3990   -2.0890   49.6070 N   0  0  0  0  0  0  0  0  0  0  0  0
    1.3940   -4.3900   50.2520 N   0  0  0  0  0  0  0  0  0  0  0  0
   -0.7700   -2.7580   50.7720 S   0  0  0  0  0  0  0  0  0  0  0  0
  1  2  2  0
  1  4  1  0
  2  6  1  0
  3  4  2  0
  3  5  1  0
  3  6  1  0
M  END
>  <PDBID_FRAGID>  (1) 
FRASE_5WVD_7UX_fragment_2

>  <triplet_in_target>  (1) 
LEUA28PHEA34VALA45

$$$$
FRASE_7NZN_VJH_fragment_4_0_ARGA50SERA85GLUA89
     RDKit          3D

  7  7  0  0  0  0  0  0  0  0999 V2000
   -4.0140    2.2190   67.5200 C   0  0  0  0  0  0  0  0  0  0  0  0
   -3.4870    2.1240   68.9500 C   0  0  0  0  0  0  0  0  0  0  0  0
   -3.2770    2.2710   71.1700 C   0  0  0  0  0  0  0  0  0  0  0  0
   -4.1140    2.5580   70.1170 C   0  0  0  0  0  0  0  0  0  0  0  0
   -2.3160    1.5910   69.2970 N   0  0  0  0  0  0  0  0  0  0  0  0
   -2.2140    1.6960   70.6550 N   0  0  0  0  0  0  0  0  0  0  0  0
   -3.4750    2.5290   72.5950 N   0  0  0  0  0  0  0  0  0  0  0  0
  1  2  1  0
  2  4  1  0
  2  5  2  0
  3  4  2  0
  3  6  1  0
  3  7  1  0
  5  6  1  0
M  END
>  <PDBID_FRAGID>  (1) 
FRASE_7NZN_VJH_fragment_4

>  <triplet_in_target>  (1) 
ARGA50SERA85GLUA89

$$$$
FRASE_5EVY_SAL_fragment_1_0_LEUA37ARGA43PHEA88
     RDKit          3D

 10 10  0  0  0  0  0  0  0  0999 V2000
    1.1090   -2.2980   50.5450 C   0  0  0  0  0  0  0  0  0  0  0  0
    1.9800   -2.3720   51.4410 O   0  0  0  0  0  0  0  0  0  0  0  0
    0.9500   -3.2180   49.6950 O   0  0  0  0  0  0  0  0  0  0  0  0
    0.2230   -1.0730   50.5540 C   0  0  0  0  0  0  0  0  0  0  0  0
   -0.8050   -0.7990   49.4830 C   0  0  0  0  0  0  0  0  0  0  0  0
   -1.5930    0.3520   49.5970 C   0  0  0  0  0  0  0  0  0  0  0  0
   -1.4140    1.2090   50.6850 C   0  0  0  0  0  0  0  0  0  0  0  0
   -0.4570    0.9530   51.6810 C   0  0  0  0  0  0  0  0  0  0  0  0
    0.3490   -0.1720   51.6230 C   0  0  0  0  0  0  0  0  0  0  0  0
   -0.9860   -1.6410   48.4150 O   0  0  0  0  0  0  0  0  0  0  0  0
  1  2  2  0
  1  3  1  0
  1  4  1  0
  4  5  2  0
  4  9  1  0
  5  6  1  0
  5 10  1  0
  6  7  2  0
  7  8  1  0
  8  9  2  0
M  END
>  <PDBID_FRAGID>  (1) 
FRASE_5EVY_SAL_fragment_1

>  <triplet_in_target>  (1) 
LEUA37ARGA43PHEA88

$$$$
FRASE_8CAP_U4O_fragment_3_0_VALA53THRA79PHEA91
     RDKit          3D

  7  7  0  0  0  0  0  0  0  0999 V2000
   10.3900   -1.3950   77.0750 C   0  0  0  0  0  0  0  0  0  0  0  0
   11.2500   -2.0600   77.9690 C   0  0  0  0  0  0  0  0  0  0  0  0
   10.9810   -2.0820   79.3480 C   0  0  0  0  0  0  0  0  0  0  0  0
   11.8600   -2.7320   80.2170 C   0  0  0  0  0  0  0  0  0  0  0  0
   13.0120   -3.3560   79.7310 C   0  0  0  0  0  0  0  0  0  0  0  0
   13.2710   -3.3140   78.3650 C   0  0  0  0  0  0  0  0  0  0  0  0
   12.3800   -2.6470   77.5020 N   0  0  0  0  0  0  0  0  0  0  0  0
  1  2  1  0
  2  3  2  0
  2  7  1  0
  3  4  1  0
  4  5  2  0
  5  6  1  0
  6  7  2  0
M  END
>  <PDBID_FRAGID>  (1) 
FRASE_8CAP_U4O_fragment_3

>  <triplet_in_target>  (1) 
VALA53THRA79PHEA91

$$$$
FRASE_5V18_8UY_fragment_2_0_LEUA38ILEA58PHEA88
     RDKit          3D

  9 10  0  0  0  0  0  0  0  0999 V2000
    9.2880   -7.2820   56.0230 C   0  0  0  0  0  0  0  0  0  0  0  0
    8.2600   -4.7730   56.6810 C   0  0  0  0  0  0  0  0  0  0  0  0
    6.7670   -4.1690   58.1470 C   0  0  0  0  0  0  0  0  0  0  0  0
    8.3080   -7.1450   57.0100 C   0  0  0  0  0  0  0  0  0  0  0  0
    9.7580   -6.1310   55.3640 C   0  0  0  0  0  0  0  0  0  0  0  0
    9.2520   -4.8930   55.6750 C   0  0  0  0  0  0  0  0  0  0  0  0
    7.6030   -3.7450   57.2030 N   0  0  0  0  0  0  0  0  0  0  0  0
    6.8540   -5.4640   58.2580 N   0  0  0  0  0  0  0  0  0  0  0  0
    7.8160   -5.8950   57.3240 N   0  0  0  0  0  0  0  0  0  0  0  0
  1  4  2  0
  1  5  1  0
  2  6  1  0
  2  7  2  0
  2  9  1  0
  3  7  1  0
  3  8  2  0
  4  9  1  0
  5  6  2  0
  8  9  1  0
M  END
>  <PDBID_FRAGID>  (1) 
FRASE_5V18_8UY_fragment_2

>  <triplet_in_target>  (1) 
LEUA38ILEA58PHEA88

$$$$
FRASE_8J85_97U_fragment_1_0_ILEA156ILEA162THRA167
     RDKit          3D

 14 14  0  0  0  0  0  0  0  0999 V2000
   27.2490   13.7690   90.9740 C   0  0  0  0  0  0  0  0  0  0  0  0
   28.1320   14.4540   90.1500 C   0  0  0  0  0  0  0  0  0  0  0  0
   28.9910   13.7590   89.3100 C   0  0  0  0  0  0  0  0  0  0  0  0
   28.9670   12.3720   89.2950 C   0  0  0  0  0  0  0  0  0  0  0  0
   28.0840   11.6890   90.1190 C   0  0  0  0  0  0  0  0  0  0  0  0
   27.2250   12.3830   90.9580 C   0  0  0  0  0  0  0  0  0  0  0  0
   26.3500   11.6920   91.7820 C   0  0  0  0  0  0  0  0  0  0  0  0
   27.1470   10.8460   92.7800 C   0  0  1  0  0  0  0  0  0  0  0  0
   27.7120   11.7500   93.8590 C   0  0  0  0  0  0  0  0  0  0  0  0
   26.9060   12.3080   94.6200 O   0  0  0  0  0  0  0  0  0  0  0  0
   28.9370   11.8540   93.8970 O   0  0  0  0  0  0  0  0  0  0  0  0
   26.3090    9.8490   93.4600 N   0  0  0  0  0  0  0  0  0  0  0  0
   26.7680    8.6420   93.8030 C   0  0  0  0  0  0  0  0  0  0  0  0
   27.8900    8.2190   93.5330 O   0  0  0  0  0  0  0  0  0  0  0  0
  1  2  2  0
  1  6  1  0
  2  3  1  0
  3  4  2  0
  4  5  1  0
  5  6  2  0
  6  7  1  0
  8  7  1  6
  8  9  1  0
  8 12  1  0
  9 10  2  0
  9 11  1  0
 12 13  1  0
 13 14  2  0
M  END
>  <PDBID_FRAGID>  (1) 
FRASE_8J85_97U_fragment_1

>  <triplet_in_target>  (1) 
ILEA156ILEA162THRA167

$$$$
FRASE_3SRG_OCH_fragment_1_0_HISA109SERA171ILEA177
     RDKit          3D

 11 12  0  0  0  0  0  0  0  0999 V2000
   18.3510   18.1090   71.5780 O   0  0  0  0  0  0  0  0  0  0  0  0
   18.6170   19.4450   73.4010 N   0  0  0  0  0  0  0  0  0  0  0  0
   19.1650   20.4910   74.0590 C   0  0  0  0  0  0  0  0  0  0  0  0
   18.7850   20.7720   75.3680 C   0  0  0  0  0  0  0  0  0  0  0  0
   19.3490   21.8630   76.0560 C   0  0  0  0  0  0  0  0  0  0  0  0
   20.3370   22.6470   75.4400 C   0  0  0  0  0  0  0  0  0  0  0  0
   20.7350   22.3510   74.1280 C   0  0  0  0  0  0  0  0  0  0  0  0
   20.1490   21.2850   73.4200 C   0  0  0  0  0  0  0  0  0  0  0  0
   20.5250   20.9700   72.0860 C   0  0  0  0  0  0  0  0  0  0  0  0
   19.9360   19.8550   71.4480 C   0  0  0  0  0  0  0  0  0  0  0  0
   18.9760   19.1240   72.1480 C   0  0  0  0  0  0  0  0  0  0  0  0
  1 11  2  0
  2  3  1  0
  2 11  1  0
  3  4  2  0
  3  8  1  0
  4  5  1  0
  5  6  2  0
  6  7  1  0
  7  8  2  0
  8  9  1  0
  9 10  2  0
 10 11  1  0
M  END
>  <PDBID_FRAGID>  (1) 
FRASE_3SRG_OCH_fragment_1

>  <triplet_in_target>  (1) 
HISA109SERA171ILEA177

$$$$
FRASE_7BD9_GW1_fragment_2_0_LEUA28PHEA34VALA45
     RDKit          3D

  7  7  0  0  0  0  0  0  0  0999 V2000
    0.3620   -1.7790   50.6730 N   0  0  0  0  0  0  0  0  0  0  0  0
    1.0910   -2.2510   49.5010 C   0  0  0  0  0  0  0  0  0  0  0  0
   -0.4030   -0.5130   50.8820 C   0  0  0  0  0  0  0  0  0  0  0  0
   -1.8840   -0.8480   51.0250 C   0  0  0  0  0  0  0  0  0  0  0  0
   -2.2080   -2.2740   51.2680 C   0  0  0  0  0  0  0  0  0  0  0  0
    0.2260   -2.5990   51.8950 C   0  0  0  0  0  0  0  0  0  0  0  0
   -1.1920   -3.1500   51.9030 C   0  0  0  0  0  0  0  0  0  0  0  0
  1  2  1  0
  1  3  1  0
  1  6  1  0
  3  4  1  0
  4  5  1  0
  5  7  1  0
  6  7  1  0
M  END
>  <PDBID_FRAGID>  (1) 
FRASE_7BD9_GW1_fragment_2

>  <triplet_in_target>  (1) 
LEUA28PHEA34VALA45

$$$$
FRASE_4MUI_2DQ_fragment_2_0_PHEA69VALA76ASPA116
     RDKit          3D

 14 14  0  0  0  0  0  0  0  0999 V2000
    9.8400   -3.7810   71.9870 C   0  0  0  0  0  0  0  0  0  0  0  0
    8.9650   -3.2670   72.6790 O   0  0  0  0  0  0  0  0  0  0  0  0
   10.4480   -4.8980   72.3800 N   0  0  0  0  0  0  0  0  0  0  0  0
   10.0920   -5.6380   73.8680 S   0  0  2  0  0  0  0  0  0  0  0  0
   10.6800   -6.9910   73.8160 O   0  0  0  0  0  0  0  0  0  0  0  0
    8.6440   -5.8950   74.2050 O   0  0  0  0  0  0  0  0  0  0  0  0
   10.7370   -4.6730   75.1630 C   0  0  0  0  0  0  0  0  0  0  0  0
   12.0480   -4.2090   75.1080 C   0  0  0  0  0  0  0  0  0  0  0  0
   12.5720   -3.4530   76.1750 C   0  0  0  0  0  0  0  0  0  0  0  0
   11.7590   -3.1670   77.2930 C   0  0  0  0  0  0  0  0  0  0  0  0
   12.2570   -2.4020   78.3180 O   0  0  0  0  0  0  0  0  0  0  0  0
   11.6520   -2.6630   79.6190 C   0  0  0  0  0  0  0  0  0  0  0  0
   10.4410   -3.6290   77.3160 C   0  0  0  0  0  0  0  0  0  0  0  0
    9.9140   -4.3910   76.2640 C   0  0  0  0  0  0  0  0  0  0  0  0
  1  2  2  0
  1  3  1  0
  4  3  1  6
  4  5  2  0
  4  6  2  0
  4  7  1  0
  7  8  2  0
  7 14  1  0
  8  9  1  0
  9 10  2  0
 10 11  1  0
 10 13  1  0
 11 12  1  0
 13 14  2  0
M  END
>  <PDBID_FRAGID>  (1) 
FRASE_4MUI_2DQ_fragment_2

>  <triplet_in_target>  (1) 
PHEA69VALA76ASPA116

$$$$
FRASE_7AJA_RJ2_fragment_2_0_LEUA157ILEA162PHEA173
     RDKit          3D

  6  6  0  0  0  0  0  0  0  0999 V2000
   24.3590   13.3440   81.4600 N   0  0  0  0  0  0  0  0  0  0  0  0
   23.7310   12.2180   81.8800 C   0  0  0  0  0  0  0  0  0  0  0  0
   22.9350   12.2120   83.0300 C   0  0  0  0  0  0  0  0  0  0  0  0
   22.8450   13.3580   83.8170 C   0  0  0  0  0  0  0  0  0  0  0  0
   23.5240   14.4950   83.3840 C   0  0  0  0  0  0  0  0  0  0  0  0
   24.2510   14.4580   82.2060 C   0  0  0  0  0  0  0  0  0  0  0  0
  1  2  2  0
  1  6  1  0
  2  3  1  0
  3  4  2  0
  4  5  1  0
  5  6  2  0
M  END
>  <PDBID_FRAGID>  (1) 
FRASE_7AJA_RJ2_fragment_2

>  <triplet_in_target>  (1) 
LEUA157ILEA162PHEA173

$$$$
FRASE_5G6F_2SN_fragment_2_0_HISA31ALAA51PHEA91
     RDKit          3D

 13 14  0  0  0  0  0  0  0  0999 V2000
   -4.7440    6.6870   58.9990 N   0  0  0  0  0  0  0  0  0  0  0  0
   -5.2830    5.6290   59.8160 C   0  0  0  0  0  0  0  0  0  0  0  0
   -4.7950    4.3380   63.2910 C   0  0  0  0  0  0  0  0  0  0  0  0
   -5.2930    4.5910   62.0300 C   0  0  0  0  0  0  0  0  0  0  0  0
   -4.6270    5.4390   61.1630 C   0  0  0  0  0  0  0  0  0  0  0  0
   -3.4240    6.0300   61.5580 C   0  0  0  0  0  0  0  0  0  0  0  0
   -2.9090    5.7650   62.8340 C   0  0  0  0  0  0  0  0  0  0  0  0
   -3.5980    4.9150   63.7030 C   0  0  0  0  0  0  0  0  0  0  0  0
   -3.1210    4.6280   64.9800 C   0  0  0  0  0  0  0  0  0  0  0  0
   -3.8620    3.7640   65.7870 C   0  0  0  0  0  0  0  0  0  0  0  0
   -5.0650    3.2190   65.3210 C   0  0  0  0  0  0  0  0  0  0  0  0
   -5.8260    2.3830   66.0770 N   0  0  0  0  0  0  0  0  0  0  0  0
   -5.4990    3.5140   64.0880 N   0  0  0  0  0  0  0  0  0  0  0  0
  1  2  1  0
  2  5  1  0
  3  4  2  0
  3  8  1  0
  3 13  1  0
  4  5  1  0
  5  6  2  0
  6  7  1  0
  7  8  2  0
  8  9  1  0
  9 10  2  0
 10 11  1  0
 11 12  1  0
 11 13  2  0
M  END
>  <PDBID_FRAGID>  (1) 
FRASE_5G6F_2SN_fragment_2

>  <triplet_in_target>  (1) 
HISA31ALAA51PHEA91

$$$$
FRASE_5FDP_5WR_fragment_1_0_LEUA28PHEA34VALA45
     RDKit          3D

  6  6  0  0  0  0  0  0  0  0999 V2000
    1.5050   -2.1030   50.3300 C   0  0  0  0  0  0  0  0  0  0  0  0
    2.0250   -4.3490   50.7050 C   0  0  0  0  0  0  0  0  0  0  0  0
   -0.0900   -3.8880   49.9730 C   0  0  0  0  0  0  0  0  0  0  0  0
    0.2130   -2.4690   49.9460 C   0  0  0  0  0  0  0  0  0  0  0  0
    2.3780   -3.0450   50.7080 N   0  0  0  0  0  0  0  0  0  0  0  0
    0.8370   -4.7630   50.3530 N   0  0  0  0  0  0  0  0  0  0  0  0
  1  4  2  0
  1  5  1  0
  2  5  2  0
  2  6  1  0
  3  4  1  0
  3  6  2  0
M  END
>  <PDBID_FRAGID>  (1) 
FRASE_5FDP_5WR_fragment_1

>  <triplet_in_target>  (1) 
LEUA28PHEA34VALA45

$$$$
FRASE_6ZE6_4NC_fragment_1_0_ARGA32LEUA38PHEA88
     RDKit          3D

 11 11  0  0  0  0  0  0  0  0999 V2000
   -4.8600    1.4290   50.3820 C   0  0  0  0  0  0  0  0  0  0  0  0
   -4.8520    0.0410   50.2060 C   0  0  0  0  0  0  0  0  0  0  0  0
   -4.3790   -0.7470   51.2410 C   0  0  0  0  0  0  0  0  0  0  0  0
   -3.9010   -0.1380   52.3980 C   0  0  0  0  0  0  0  0  0  0  0  0
   -3.9260    1.2430   52.5750 C   0  0  0  0  0  0  0  0  0  0  0  0
   -4.3810    2.0150   51.5420 C   0  0  0  0  0  0  0  0  0  0  0  0
   -5.3470    2.1610   49.3510 O   0  0  0  0  0  0  0  0  0  0  0  0
   -5.3470   -0.3920   49.0050 O   0  0  0  0  0  0  0  0  0  0  0  0
   -3.4010   -0.9610   53.4770 N   0  0  0  0  0  0  0  0  0  0  0  0
   -3.2010   -0.4470   54.5590 O   0  0  0  0  0  0  0  0  0  0  0  0
   -3.1690   -2.1470   53.2470 O   0  0  0  0  0  0  0  0  0  0  0  0
  1  2  2  0
  1  6  1  0
  1  7  1  0
  2  3  1  0
  2  8  1  0
  3  4  2  0
  4  5  1  0
  4  9  1  0
  5  6  2  0
  9 10  2  0
  9 11  1  0
M  CHG  2   9   1  11  -1
M  END
>  <PDBID_FRAGID>  (1) 
FRASE_6ZE6_4NC_fragment_1

>  <triplet_in_target>  (1) 
ARGA32LEUA38PHEA88

$$$$
FRASE_5HMR_FDZ_fragment_2_0_ILEA106LEUA170ILEA177
     RDKit          3D

  9  9  0  0  0  0  0  0  0  0999 V2000
   14.2080   24.1720   74.4690 N   0  0  0  0  0  0  0  0  0  0  0  0
   15.4470   23.4850   74.5010 C   0  0  0  0  0  0  0  0  0  0  0  0
   16.5200   24.0760   74.4740 O   0  0  0  0  0  0  0  0  0  0  0  0
   15.4070   22.0790   74.6030 N   0  0  0  0  0  0  0  0  0  0  0  0
   16.6220   21.3410   74.6510 C   0  0  0  0  0  0  0  0  0  0  0  0
   16.7860   19.9640   74.7330 C   0  0  0  0  0  0  0  0  0  0  0  0
   18.0660   19.5890   74.7390 N   0  0  0  0  0  0  0  0  0  0  0  0
   18.9950   20.5560   74.6750 N   0  0  0  0  0  0  0  0  0  0  0  0
   18.2180   21.9600   74.6320 S   0  0  0  0  0  0  0  0  0  0  0  0
  1  2  1  0
  2  3  2  0
  2  4  1  0
  4  5  1  0
  5  6  2  0
  5  9  1  0
  6  7  1  0
  7  8  2  0
  8  9  1  0
M  END
>  <PDBID_FRAGID>  (1) 
FRASE_5HMR_FDZ_fragment_2

>  <triplet_in_target>  (1) 
ILEA106LEUA170ILEA177

$$$$
FRASE_3IU2_096_fragment_3_0_VALA76PHEA91VALA97
     RDKit          3D

  6  6  0  0  0  0  0  0  0  0999 V2000
   13.1030    2.6310   66.4150 N   0  0  0  0  0  0  0  0  0  0  0  0
   12.6400    0.3870   67.0940 C   0  0  0  0  0  0  0  0  0  0  0  0
   11.3330    0.7660   67.4210 C   0  0  0  0  0  0  0  0  0  0  0  0
   10.9350    2.0900   67.2270 C   0  0  0  0  0  0  0  0  0  0  0  0
   11.8500    3.0150   66.7210 C   0  0  0  0  0  0  0  0  0  0  0  0
   13.5100    1.3590   66.5920 C   0  0  0  0  0  0  0  0  0  0  0  0
  1  5  2  0
  1  6  1  0
  2  3  1  0
  2  6  2  0
  3  4  2  0
  4  5  1  0
M  END
>  <PDBID_FRAGID>  (1) 
FRASE_3IU2_096_fragment_3

>  <triplet_in_target>  (1) 
VALA76PHEA91VALA97

$$$$
FRASE_5OBR_SKE_fragment_3_0_ILEA114ASPA119LEUA123
     RDKit          3D

  9  9  0  0  0  0  0  0  0  0999 V2000
   10.0070   10.6520   80.6650 C   0  0  0  0  0  0  0  0  0  0  0  0
   11.0570   10.8500   79.8540 N   0  0  0  0  0  0  0  0  0  0  0  0
    8.0710   10.3770   81.4820 C   0  0  0  0  0  0  0  0  0  0  0  0
    8.7530   10.3750   80.2950 N   0  0  0  0  0  0  0  0  0  0  0  0
    6.6890   10.2710   81.4670 N   0  0  0  0  0  0  0  0  0  0  0  0
   12.2620   11.2010   82.4200 O   0  0  0  0  0  0  0  0  0  0  0  0
    8.7990   10.5940   82.5640 N   0  0  0  0  0  0  0  0  0  0  0  0
   10.0580   10.7820   82.0310 N   0  0  0  0  0  0  0  0  0  0  0  0
   11.1330   11.0970   82.8720 C   0  0  0  0  0  0  0  0  0  0  0  0
  1  2  1  0
  1  4  2  0
  1  8  1  0
  3  4  1  0
  3  5  1  0
  3  7  2  0
  6  9  2  0
  7  8  1  0
  8  9  1  0
M  END
>  <PDBID_FRAGID>  (1) 
FRASE_5OBR_SKE_fragment_3

>  <triplet_in_target>  (1) 
ILEA114ASPA119LEUA123

$$$$
FRASE_5EVY_SAL_fragment_1_0_TYRA110PHEA115LEUA170
     RDKit          3D

 10 10  0  0  0  0  0  0  0  0999 V2000
   20.0250   10.5350   69.7370 C   0  0  0  0  0  0  0  0  0  0  0  0
   20.3450    9.3690   70.0580 O   0  0  0  0  0  0  0  0  0  0  0  0
   19.7080   10.8350   68.5520 O   0  0  0  0  0  0  0  0  0  0  0  0
   19.9900   11.5630   70.8460 C   0  0  0  0  0  0  0  0  0  0  0  0
   19.7160   13.0260   70.5950 C   0  0  0  0  0  0  0  0  0  0  0  0
   19.6810   13.8930   71.6950 C   0  0  0  0  0  0  0  0  0  0  0  0
   19.8960   13.3900   72.9800 C   0  0  0  0  0  0  0  0  0  0  0  0
   20.1510   12.0290   73.2100 C   0  0  0  0  0  0  0  0  0  0  0  0
   20.1940   11.1230   72.1630 C   0  0  0  0  0  0  0  0  0  0  0  0
   19.5000   13.5210   69.3350 O   0  0  0  0  0  0  0  0  0  0  0  0
  1  2  2  0
  1  3  1  0
  1  4  1  0
  4  5  2  0
  4  9  1  0
  5  6  1  0
  5 10  1  0
  6  7  2  0
  7  8  1  0
  8  9  2  0
M  END
>  <PDBID_FRAGID>  (1) 
FRASE_5EVY_SAL_fragment_1

>  <triplet_in_target>  (1) 
TYRA110PHEA115LEUA170

$$$$
FRASE_3PAN_HPA_fragment_1_0_GLUA126ASNA133ILEA153
     RDKit          3D

 10 11  0  0  0  0  0  0  0  0999 V2000
   21.4600    3.1450   81.0210 N   0  0  0  0  0  0  0  0  0  0  0  0
   20.0640    2.9750   80.9500 C   0  0  0  0  0  0  0  0  0  0  0  0
   19.2340    4.0320   81.0570 N   0  0  0  0  0  0  0  0  0  0  0  0
   19.7720    5.3190   81.2450 C   0  0  0  0  0  0  0  0  0  0  0  0
   21.1380    5.4750   81.3150 C   0  0  0  0  0  0  0  0  0  0  0  0
   21.9980    4.4140   81.2060 C   0  0  0  0  0  0  0  0  0  0  0  0
   23.1890    4.5680   81.2910 O   0  0  0  0  0  0  0  0  0  0  0  0
   21.4670    6.8280   81.5040 N   0  0  0  0  0  0  0  0  0  0  0  0
   20.3030    7.5400   81.5550 C   0  0  0  0  0  0  0  0  0  0  0  0
   19.2040    6.6200   81.3940 N   0  0  0  0  0  0  0  0  0  0  0  0
  1  2  1  0
  1  6  1  0
  2  3  2  0
  3  4  1  0
  4  5  2  0
  4 10  1  0
  5  6  1  0
  5  8  1  0
  6  7  2  0
  8  9  1  0
  9 10  2  0
M  END
>  <PDBID_FRAGID>  (1) 
FRASE_3PAN_HPA_fragment_1

>  <triplet_in_target>  (1) 
GLUA126ASNA133ILEA153

$$$$
FRASE_5ZJW_9EO_fragment_3_0_VALA53SERA80PHEA88
     RDKit          3D

 17 18  0  0  0  0  0  0  0  0999 V2000
   -7.6510   -5.0890   69.8680 C   0  0  0  0  0  0  0  0  0  0  0  0
   -6.7600   -5.3490   68.6450 C   0  0  0  0  0  0  0  0  0  0  0  0
   -6.3240   -4.2850   67.8570 C   0  0  0  0  0  0  0  0  0  0  0  0
   -5.5320   -4.9920   66.8150 C   0  0  0  0  0  0  0  0  0  0  0  0
   -6.3670   -6.5950   68.2530 C   0  0  0  0  0  0  0  0  0  0  0  0
   -6.4120   -2.9500   67.8180 C   0  0  0  0  0  0  0  0  0  0  0  0
   -5.6540   -2.2180   66.8460 C   0  0  0  0  0  0  0  0  0  0  0  0
   -4.8440   -2.9210   65.8620 C   0  0  0  0  0  0  0  0  0  0  0  0
   -4.9020   -4.3380   65.8350 C   0  0  0  0  0  0  0  0  0  0  0  0
   -5.6480   -0.7160   66.8340 C   0  0  0  0  0  0  0  0  0  0  0  0
   -6.6030    1.4110   67.7130 C   0  0  0  0  0  0  0  0  0  0  0  0
   -7.0580    1.8150   69.0920 C   0  0  0  0  0  0  0  0  0  0  0  0
   -5.6430   -6.4160   67.1940 N   0  0  0  0  0  0  0  0  0  0  0  0
   -6.5520   -0.0160   67.6610 N   0  0  0  0  0  0  0  0  0  0  0  0
   -6.6250   -7.8420   68.7790 O   0  0  0  0  0  0  0  0  0  0  0  0
   -4.8780   -0.1400   66.0960 O   0  0  0  0  0  0  0  0  0  0  0  0
   -6.0570    1.3630   69.9660 O   0  0  0  0  0  0  0  0  0  0  0  0
  1  2  2  0
  2  3  1  0
  2  5  1  0
  3  4  2  0
  3  6  1  0
  4  9  1  0
  4 13  1  0
  5 13  1  0
  5 15  2  0
  6  7  2  0
  7  8  1  0
  7 10  1  0
  8  9  2  0
 10 14  1  0
 10 16  2  0
 11 12  1  0
 11 14  1  0
 12 17  1  0
M  END
>  <PDBID_FRAGID>  (1) 
FRASE_5ZJW_9EO_fragment_3

>  <triplet_in_target>  (1) 
VALA53SERA80PHEA88

$$$$
FRASE_5G67_M87_fragment_2_0_HISA31ALAA51PHEA91
     RDKit          3D

 15 16  0  0  0  0  0  0  0  0999 V2000
   -6.1790    5.7270   56.8860 C   0  0  0  0  0  0  0  0  0  0  0  0
   -5.2180    6.8180   57.3450 C   0  0  0  0  0  0  0  0  0  0  0  0
   -5.0860    6.8060   58.8170 N   0  0  0  0  0  0  0  0  0  0  0  0
   -4.8620    5.4220   59.2670 C   0  0  0  0  0  0  0  0  0  0  0  0
   -4.4190    5.3760   60.7150 C   0  0  0  0  0  0  0  0  0  0  0  0
   -3.2910    6.0810   61.1360 C   0  0  0  0  0  0  0  0  0  0  0  0
   -2.8970    6.0100   62.4770 C   0  0  0  0  0  0  0  0  0  0  0  0
   -5.1360    4.6030   61.6230 C   0  0  0  0  0  0  0  0  0  0  0  0
   -4.7530    4.5470   62.9610 C   0  0  0  0  0  0  0  0  0  0  0  0
   -5.4720    3.7940   63.8300 N   0  0  0  0  0  0  0  0  0  0  0  0
   -3.6200    5.2400   63.3880 C   0  0  0  0  0  0  0  0  0  0  0  0
   -3.2310    5.1530   64.7320 C   0  0  0  0  0  0  0  0  0  0  0  0
   -3.9870    4.3650   65.6070 C   0  0  0  0  0  0  0  0  0  0  0  0
   -5.1170    3.6820   65.1330 C   0  0  0  0  0  0  0  0  0  0  0  0
   -5.8820    2.9190   65.9670 N   0  0  0  0  0  0  0  0  0  0  0  0
  1  2  1  0
  2  3  1  0
  3  4  1  0
  4  5  1  0
  5  6  2  0
  5  8  1  0
  6  7  1  0
  7 11  2  0
  8  9  2  0
  9 10  1  0
  9 11  1  0
 10 14  2  0
 11 12  1  0
 12 13  2  0
 13 14  1  0
 14 15  1  0
M  END
>  <PDBID_FRAGID>  (1) 
FRASE_5G67_M87_fragment_2

>  <triplet_in_target>  (1) 
HISA31ALAA51PHEA91

$$$$
FRASE_4MUI_2DQ_fragment_2_0_PHEA69ASPA116LEUA131
     RDKit          3D

 14 14  0  0  0  0  0  0  0  0999 V2000
   10.0710   -0.8040   77.2670 C   0  0  0  0  0  0  0  0  0  0  0  0
   10.2890   -0.4830   78.4320 O   0  0  0  0  0  0  0  0  0  0  0  0
   10.0470   -2.0870   76.9090 N   0  0  0  0  0  0  0  0  0  0  0  0
   10.3680   -3.3340   78.0180 S   0  0  2  0  0  0  0  0  0  0  0  0
    9.9270   -4.5890   77.3780 O   0  0  0  0  0  0  0  0  0  0  0  0
    9.6230   -3.3270   79.3300 O   0  0  0  0  0  0  0  0  0  0  0  0
   12.0620   -3.3370   78.4120 C   0  0  0  0  0  0  0  0  0  0  0  0
   13.0180   -3.2730   77.4010 C   0  0  0  0  0  0  0  0  0  0  0  0
   14.3880   -3.3060   77.7270 C   0  0  0  0  0  0  0  0  0  0  0  0
   14.7820   -3.3980   79.0790 C   0  0  0  0  0  0  0  0  0  0  0  0
   16.1170   -3.3960   79.4010 O   0  0  0  0  0  0  0  0  0  0  0  0
   16.4430   -4.0880   80.6420 C   0  0  0  0  0  0  0  0  0  0  0  0
   13.8040   -3.4430   80.0750 C   0  0  0  0  0  0  0  0  0  0  0  0
   12.4380   -3.4210   79.7600 C   0  0  0  0  0  0  0  0  0  0  0  0
  1  2  2  0
  1  3  1  0
  4  3  1  6
  4  5  2  0
  4  6  2  0
  4  7  1  0
  7  8  2  0
  7 14  1  0
  8  9  1  0
  9 10  2  0
 10 11  1  0
 10 13  1  0
 11 12  1  0
 13 14  2  0
M  END
>  <PDBID_FRAGID>  (1) 
FRASE_4MUI_2DQ_fragment_2

>  <triplet_in_target>  (1) 
PHEA69ASPA116LEUA131

$$$$
FRASE_5DPV_SKE_fragment_2_0_ILEA114LEUA123LEUA170
     RDKit          3D

 14 15  0  0  0  0  0  0  0  0999 V2000
    6.5490   11.8080   82.5720 O   0  0  0  0  0  0  0  0  0  0  0  0
    7.6230   12.5450   82.2030 C   0  0  0  0  0  0  0  0  0  0  0  0
    7.3860   13.6640   81.7960 O   0  0  0  0  0  0  0  0  0  0  0  0
    8.9650   11.9330   82.3270 C   0  0  0  0  0  0  0  0  0  0  0  0
    9.7890   12.3290   83.3400 C   0  0  0  0  0  0  0  0  0  0  0  0
   11.0850   11.7280   83.4480 C   0  0  0  0  0  0  0  0  0  0  0  0
   11.5170   10.7980   82.5990 N   0  0  0  0  0  0  0  0  0  0  0  0
   10.6700   10.4120   81.5810 C   0  0  0  0  0  0  0  0  0  0  0  0
   11.1250    9.4090   80.6590 C   0  0  0  0  0  0  0  0  0  0  0  0
   12.3320    8.8920   80.8110 F   0  0  0  0  0  0  0  0  0  0  0  0
   10.3240    8.9840   79.6240 C   0  0  0  0  0  0  0  0  0  0  0  0
    9.0360    9.5420   79.4680 C   0  0  0  0  0  0  0  0  0  0  0  0
    8.5680   10.4980   80.3280 C   0  0  0  0  0  0  0  0  0  0  0  0
    9.3800   10.9460   81.3960 C   0  0  0  0  0  0  0  0  0  0  0  0
  1  2  1  0
  2  3  1  0
  2  4  1  0
  4  5  1  0
  4 14  1  0
  5  6  1  0
  6  7  1  0
  7  8  1  0
  8  9  1  0
  8 14  1  0
  9 10  1  0
  9 11  1  0
 11 12  1  0
 12 13  1  0
 13 14  1  0
M  END
>  <PDBID_FRAGID>  (1) 
FRASE_5DPV_SKE_fragment_2

>  <triplet_in_target>  (1) 
ILEA114LEUA123LEUA170

$$$$
FRASE_5FXF_BEZ_fragment_1_0_ILEA73ASPA90VALA97
     RDKit          3D

  9  9  0  0  0  0  0  0  0  0999 V2000
    6.2610    8.4890   71.8370 C   0  0  0  0  0  0  0  0  0  0  0  0
    5.4210    8.9860   72.5990 O   0  0  0  0  0  0  0  0  0  0  0  0
    5.9790    8.3180   70.6160 O   0  0  0  0  0  0  0  0  0  0  0  0
    7.5910    8.0420   72.3380 C   0  0  0  0  0  0  0  0  0  0  0  0
    7.8490    8.0450   73.7260 C   0  0  0  0  0  0  0  0  0  0  0  0
    9.1220    7.6560   74.1410 C   0  0  0  0  0  0  0  0  0  0  0  0
   10.1140    7.2600   73.2150 C   0  0  0  0  0  0  0  0  0  0  0  0
    9.8740    7.2870   71.8550 C   0  0  0  0  0  0  0  0  0  0  0  0
    8.5750    7.6720   71.4020 C   0  0  0  0  0  0  0  0  0  0  0  0
  1  2  2  0
  1  3  1  0
  1  4  1  0
  4  5  2  0
  4  9  1  0
  5  6  1  0
  6  7  2  0
  7  8  1  0
  8  9  2  0
M  END
>  <PDBID_FRAGID>  (1) 
FRASE_5FXF_BEZ_fragment_1

>  <triplet_in_target>  (1) 
ILEA73ASPA90VALA97

$$$$
FRASE_6D61_4AA_fragment_1_0_PHEA112THRA122GLUA172
     RDKit          3D

 12 12  0  0  0  0  0  0  0  0999 V2000
   20.3820    6.0140   83.5600 O   0  0  0  0  0  0  0  0  0  0  0  0
   20.8930    5.6900   82.4590 C   0  0  0  0  0  0  0  0  0  0  0  0
   21.1240    4.4760   82.2090 O   0  0  0  0  0  0  0  0  0  0  0  0
   21.1630    6.7850   81.4240 C   0  0  0  0  0  0  0  0  0  0  0  0
   21.3060    6.4790   80.0770 C   0  0  0  0  0  0  0  0  0  0  0  0
   21.5120    7.4970   79.1540 C   0  0  0  0  0  0  0  0  0  0  0  0
   21.5850    8.8150   79.5870 C   0  0  0  0  0  0  0  0  0  0  0  0
   21.8590   10.1410   78.4210 Cl  0  0  0  0  0  0  0  0  0  0  0  0
   21.4510    9.1130   80.9310 C   0  0  0  0  0  0  0  0  0  0  0  0
   21.5330   10.4390   81.3710 O   0  0  0  0  0  0  0  0  0  0  0  0
   21.2430    8.0980   81.8460 C   0  0  0  0  0  0  0  0  0  0  0  0
   21.1100    8.4140   83.2500 N   0  0  0  0  0  0  0  0  0  0  0  0
  1  2  2  0
  2  3  1  0
  2  4  1  0
  4  5  2  0
  4 11  1  0
  5  6  1  0
  6  7  2  0
  7  8  1  0
  7  9  1  0
  9 10  1  0
  9 11  2  0
 11 12  1  0
M  END
>  <PDBID_FRAGID>  (1) 
FRASE_6D61_4AA_fragment_1

>  <triplet_in_target>  (1) 
PHEA112THRA122GLUA172

$$$$
FRASE_4XKQ_HIS_fragment_2_0_GLUA63LEUA94SERA99
     RDKit          3D

 10 10  0  0  0  0  0  0  0  0999 V2000
   11.1120    5.3550   56.7620 N   0  0  0  0  0  0  0  0  0  0  0  0
   10.6390    6.1620   55.6570 C   0  0  2  0  0  0  0  0  0  0  0  0
   11.0750    7.6210   55.8510 C   0  0  0  0  0  0  0  0  0  0  0  0
   11.1540    8.3790   54.8690 O   0  0  0  0  0  0  0  0  0  0  0  0
    9.1200    6.0730   55.5440 C   0  0  0  0  0  0  0  0  0  0  0  0
    8.4110    6.5850   56.7530 C   0  0  0  0  0  0  0  0  0  0  0  0
    9.0580    6.8100   57.9560 N   0  0  0  0  0  0  0  0  0  0  0  0
    7.1140    6.9120   56.9550 C   0  0  0  0  0  0  0  0  0  0  0  0
    8.1870    7.2570   58.8430 C   0  0  0  0  0  0  0  0  0  0  0  0
    6.9970    7.3130   58.2650 N   0  0  0  0  0  0  0  0  0  0  0  0
  2  1  1  1
  2  3  1  0
  2  5  1  0
  3  4  1  0
  5  6  1  0
  6  7  1  0
  6  8  1  0
  7  9  1  0
  8 10  1  0
  9 10  1  0
M  END
>  <PDBID_FRAGID>  (1) 
FRASE_4XKQ_HIS_fragment_2

>  <triplet_in_target>  (1) 
GLUA63LEUA94SERA99

$$$$
FRASE_2FDV_D2G_fragment_2_0_PHEA69VALA76PHEA117
     RDKit          3D

  8  8  0  0  0  0  0  0  0  0999 V2000
   10.5640   -3.9640   74.1940 C   0  0  0  0  0  0  0  0  0  0  0  0
   10.6550   -3.4730   75.4540 C   0  0  0  0  0  0  0  0  0  0  0  0
    9.3080   -3.0960   75.8560 C   0  0  0  0  0  0  0  0  0  0  0  0
    8.5040   -3.4040   74.7920 C   0  0  0  0  0  0  0  0  0  0  0  0
    9.2440   -3.9440   73.7450 O   0  0  0  0  0  0  0  0  0  0  0  0
    6.9980   -3.2620   74.5500 C   0  0  0  0  0  0  0  0  0  0  0  0
    6.2140   -4.4570   74.8290 N   0  0  0  0  0  0  0  0  0  0  0  0
    6.6880   -5.5060   75.6520 C   0  0  0  0  0  0  0  0  0  0  0  0
  1  2  2  0
  1  5  1  0
  2  3  1  0
  3  4  2  0
  4  5  1  0
  4  6  1  0
  6  7  1  0
  7  8  1  0
M  END
>  <PDBID_FRAGID>  (1) 
FRASE_2FDV_D2G_fragment_2

>  <triplet_in_target>  (1) 
PHEA69VALA76PHEA117

$$$$
FRASE_4MQ6_29W_fragment_2_0_PHEA69VALA76ASPA116
     RDKit          3D

 13 13  0  0  0  0  0  0  0  0999 V2000
   10.0370   -3.6890   72.0210 C   0  0  0  0  0  0  0  0  0  0  0  0
    8.9720   -3.4220   72.5740 O   0  0  0  0  0  0  0  0  0  0  0  0
   10.7950   -4.5780   72.5580 N   0  0  0  0  0  0  0  0  0  0  0  0
   10.4160   -5.2630   74.0260 S   0  0  2  0  0  0  0  0  0  0  0  0
   10.8870   -6.5850   74.0770 O   0  0  0  0  0  0  0  0  0  0  0  0
    8.9590   -5.6360   74.3210 O   0  0  0  0  0  0  0  0  0  0  0  0
   10.9590   -4.3590   75.1580 C   0  0  0  0  0  0  0  0  0  0  0  0
   12.3020   -4.1720   75.2100 C   0  0  0  0  0  0  0  0  0  0  0  0
   12.8220   -3.3910   76.3000 C   0  0  0  0  0  0  0  0  0  0  0  0
   11.9710   -2.8830   77.3070 C   0  0  0  0  0  0  0  0  0  0  0  0
   12.4760   -2.1050   78.3600 C   0  0  0  0  0  0  0  0  0  0  0  0
   10.5700   -3.0960   77.1850 C   0  0  0  0  0  0  0  0  0  0  0  0
   10.0570   -3.8720   76.1290 C   0  0  0  0  0  0  0  0  0  0  0  0
  1  2  2  0
  1  3  1  0
  4  3  1  6
  4  5  2  0
  4  6  2  0
  4  7  1  0
  7  8  2  0
  7 13  1  0
  8  9  1  0
  9 10  2  0
 10 11  1  0
 10 12  1  0
 12 13  2  0
M  END
>  <PDBID_FRAGID>  (1) 
FRASE_4MQ6_29W_fragment_2

>  <triplet_in_target>  (1) 
PHEA69VALA76ASPA116

$$$$
FRASE_1A7A_ADC_fragment_1_0_SERA108HISA175SERA180
     RDKit          3D

  7  7  0  0  0  0  0  0  0  0999 V2000
   20.3520   22.0960   71.9740 C   0  0  0  0  0  0  0  0  0  0  0  0
   20.0600   21.3140   70.8890 C   0  0  0  0  0  0  0  0  0  0  0  0
   20.9830   20.1600   70.8070 C   0  0  2  0  0  0  0  0  0  0  0  0
   20.9110   19.2100   70.0580 O   0  0  0  0  0  0  0  0  0  0  0  0
   21.5840   20.0690   72.2030 C   0  0  1  0  0  0  0  0  0  0  0  0
   22.9020   19.5590   72.0690 O   0  0  0  0  0  0  0  0  0  0  0  0
   21.5340   21.5530   72.7470 C   0  0  0  0  0  0  0  0  0  0  0  0
  1  2  2  0
  1  7  1  0
  2  3  1  0
  3  4  1  1
  3  5  1  0
  5  6  1  6
  5  7  1  0
M  END
>  <PDBID_FRAGID>  (1) 
FRASE_1A7A_ADC_fragment_1

>  <triplet_in_target>  (1) 
SERA108HISA175SERA180

$$$$
FRASE_4MUE_2DH_fragment_2_0_PHEA69VALA76ASPA116
     RDKit          3D

 16 16  0  0  0  0  0  0  0  0999 V2000
   10.1970   -3.6520   72.0680 C   0  0  0  0  0  0  0  0  0  0  0  0
    9.2280   -3.1600   72.6610 O   0  0  0  0  0  0  0  0  0  0  0  0
   10.8280   -4.7430   72.5470 N   0  0  0  0  0  0  0  0  0  0  0  0
   10.2010   -5.4990   73.7890 S   0  0  1  0  0  0  0  0  0  0  0  0
    8.8750   -5.2280   74.2900 O   0  0  0  0  0  0  0  0  0  0  0  0
   10.6670   -6.9150   73.9920 O   0  0  0  0  0  0  0  0  0  0  0  0
   10.8550   -4.5480   75.1530 C   0  0  0  0  0  0  0  0  0  0  0  0
   12.2140   -4.3480   75.3700 C   0  0  0  0  0  0  0  0  0  0  0  0
   12.6050   -3.6530   76.5360 C   0  0  0  0  0  0  0  0  0  0  0  0
   11.6960   -3.1330   77.4910 C   0  0  0  0  0  0  0  0  0  0  0  0
   12.2020   -2.5030   78.6790 C   0  0  1  0  0  0  0  0  0  0  0  0
   11.4050   -2.6550   79.7510 F   0  0  0  0  0  0  0  0  0  0  0  0
   13.3560   -3.2630   79.0290 F   0  0  0  0  0  0  0  0  0  0  0  0
   12.5400   -1.2540   78.5860 F   0  0  0  0  0  0  0  0  0  0  0  0
   10.3410   -3.3360   77.2480 C   0  0  0  0  0  0  0  0  0  0  0  0
    9.9420   -4.0420   76.0860 C   0  0  0  0  0  0  0  0  0  0  0  0
  1  2  2  0
  1  3  1  0
  4  3  1  6
  4  5  2  0
  4  6  2  0
  4  7  1  0
  7  8  2  0
  7 16  1  0
  8  9  1  0
  9 10  2  0
 10 11  1  0
 10 15  1  0
 11 12  1  1
 11 13  1  0
 11 14  1  0
 15 16  2  0
M  END
>  <PDBID_FRAGID>  (1) 
FRASE_4MUE_2DH_fragment_2

>  <triplet_in_target>  (1) 
PHEA69VALA76ASPA116

$$$$
FRASE_6F4L_NTM_fragment_1_0_ILEA156ILEA162PHEA173
     RDKit          3D

 12 12  0  0  0  0  0  0  0  0999 V2000
   28.8670   17.3400   76.5260 N   0  0  0  0  0  0  0  0  0  0  0  0
   29.0580   16.2560   77.2980 C   0  0  0  0  0  0  0  0  0  0  0  0
   28.5120   16.2640   78.6830 C   0  0  0  0  0  0  0  0  0  0  0  0
   27.8470   17.3920   79.0970 C   0  0  0  0  0  0  0  0  0  0  0  0
   27.7050   18.4700   78.2430 C   0  0  0  0  0  0  0  0  0  0  0  0
   28.2240   18.4180   76.9650 C   0  0  0  0  0  0  0  0  0  0  0  0
   29.8120   15.1090   76.7020 C   0  0  0  0  0  0  0  0  0  0  0  0
   30.1410   15.1640   75.5080 O   0  0  0  0  0  0  0  0  0  0  0  0
   30.1090   14.1270   77.3920 O   0  0  0  0  0  0  0  0  0  0  0  0
   28.6470   15.1430   79.6450 C   0  0  0  0  0  0  0  0  0  0  0  0
   27.8260   14.2540   79.6270 O   0  0  0  0  0  0  0  0  0  0  0  0
   29.5550   15.1250   80.4710 O   0  0  0  0  0  0  0  0  0  0  0  0
  1  2  2  0
  1  6  1  0
  2  3  1  0
  2  7  1  0
  3  4  2  0
  3 10  1  0
  4  5  1  0
  5  6  2  0
  7  8  2  0
  7  9  1  0
 10 11  2  0
 10 12  1  0
M  END
>  <PDBID_FRAGID>  (1) 
FRASE_6F4L_NTM_fragment_1

>  <triplet_in_target>  (1) 
ILEA156ILEA162PHEA173

$$$$
FRASE_5OGO_WWO_fragment_2_0_LEUA28PHEA34VALA45
     RDKit          3D

  8  8  0  0  0  0  0  0  0  0999 V2000
    0.0800   -1.2850   47.4540 N   0  0  0  0  0  0  0  0  0  0  0  0
   -0.1230   -0.7290   48.7880 C   0  0  0  0  0  0  0  0  0  0  0  0
   -0.0510   -1.7780   49.8680 C   0  0  0  0  0  0  0  0  0  0  0  0
   -1.2320   -2.3040   50.4440 C   0  0  0  0  0  0  0  0  0  0  0  0
   -1.1910   -3.3030   51.3710 C   0  0  0  0  0  0  0  0  0  0  0  0
    0.0670   -3.8160   51.7570 C   0  0  0  0  0  0  0  0  0  0  0  0
    1.2100   -3.3300   51.2030 C   0  0  0  0  0  0  0  0  0  0  0  0
    1.1730   -2.3080   50.2640 C   0  0  0  0  0  0  0  0  0  0  0  0
  1  2  1  0
  2  3  1  0
  3  4  2  0
  3  8  1  0
  4  5  1  0
  5  6  2  0
  6  7  1  0
  7  8  2  0
M  END
>  <PDBID_FRAGID>  (1) 
FRASE_5OGO_WWO_fragment_2

>  <triplet_in_target>  (1) 
LEUA28PHEA34VALA45

$$$$
FRASE_3HZ1_37D_fragment_1_0_ASPA161LEUA170VALA176
     RDKit          3D

 12 13  0  0  0  0  0  0  0  0999 V2000
   20.4380   22.6570   85.7220 C   0  0  0  0  0  0  0  0  0  0  0  0
   20.3100   21.2720   85.2840 C   0  0  0  0  0  0  0  0  0  0  0  0
   19.1660   20.9500   84.4570 C   0  0  0  0  0  0  0  0  0  0  0  0
   18.3610   23.1310   84.6310 C   0  0  0  0  0  0  0  0  0  0  0  0
   20.3440   19.1690   84.6830 C   0  0  0  0  0  0  0  0  0  0  0  0
   21.7070   24.5170   86.8680 C   0  0  0  0  0  0  0  0  0  0  0  0
   22.3350   22.1990   87.3270 C   0  0  0  0  0  0  0  0  0  0  0  0
   21.4950   23.1060   86.5720 N   0  0  0  0  0  0  0  0  0  0  0  0
   19.4210   23.4980   85.3710 N   0  0  0  0  0  0  0  0  0  0  0  0
   18.2160   21.8780   84.1610 N   0  0  0  0  0  0  0  0  0  0  0  0
   19.2020   19.6260   84.1650 N   0  0  0  0  0  0  0  0  0  0  0  0
   21.0160   20.1330   85.3600 N   0  0  0  0  0  0  0  0  0  0  0  0
  1  2  2  0
  1  8  1  0
  1  9  1  0
  2  3  1  0
  2 12  1  0
  3 10  2  0
  3 11  1  0
  4  9  2  0
  4 10  1  0
  5 11  2  0
  5 12  1  0
  6  8  1  0
  7  8  1  0
M  END
>  <PDBID_FRAGID>  (1) 
FRASE_3HZ1_37D_fragment_1

>  <triplet_in_target>  (1) 
ASPA161LEUA170VALA176

$$$$
FRASE_7K6L_VZD_fragment_4_0_PHEA34GLNA42VALA45
     RDKit          3D

 19 19  0  0  0  0  0  0  0  0999 V2000
   -0.1780   -1.3250   49.1740 C   0  0  1  0  0  0  0  0  0  0  0  0
   -0.4110   -1.5620   50.5280 C   0  0  0  0  0  0  0  0  0  0  0  0
   -0.6490   -2.8480   50.9910 C   0  0  0  0  0  0  0  0  0  0  0  0
   -0.6640   -3.8570   50.0260 C   0  0  0  0  0  0  0  0  0  0  0  0
   -0.4520   -3.6340   48.6700 C   0  0  0  0  0  0  0  0  0  0  0  0
   -0.2210   -2.3450   48.2340 C   0  0  0  0  0  0  0  0  0  0  0  0
   -0.9130   -5.2270   50.4260 N   0  0  0  0  0  0  0  0  0  0  0  0
    1.7690   -6.1510   50.9340 C   0  0  0  0  0  0  0  0  0  0  0  0
    1.8360   -7.0820   49.7310 C   0  0  0  0  0  0  0  0  0  0  0  0
    2.0650   -8.4250   50.2160 N   0  0  0  0  0  0  0  0  0  0  0  0
    0.9400   -9.3410   50.3210 C   0  0  0  0  0  0  0  0  0  0  0  0
   -0.1450   -8.9900   49.9920 O   0  0  0  0  0  0  0  0  0  0  0  0
    0.1260    0.3330   48.5760 S   0  0  2  0  0  0  0  0  0  0  0  0
    0.3540    1.1920   49.7530 O   0  0  0  0  0  0  0  0  0  0  0  0
   -1.0640    0.8210   47.8680 O   0  0  0  0  0  0  0  0  0  0  0  0
    1.4380    0.3100   47.5090 N   0  0  0  0  0  0  0  0  0  0  0  0
    0.0620   -5.9840   51.5770 S   0  0  2  0  0  0  0  0  0  0  0  0
   -0.5600   -7.2680   51.9380 O   0  0  0  0  0  0  0  0  0  0  0  0
    0.0990   -5.1770   52.7880 O   0  0  0  0  0  0  0  0  0  0  0  0
  1  2  1  6
  1  6  1  0
  1 13  1  0
  2  3  1  0
  3  4  1  0
  4  5  1  0
  4  7  1  0
  5  6  1  0
  7 17  1  0
  8  9  1  0
  8 17  1  0
  9 10  1  0
 10 11  1  0
 11 12  1  0
 13 14  1  0
 13 15  1  0
 13 16  1  6
 17 18  1  1
 17 19  1  0
M  END
>  <PDBID_FRAGID>  (1) 
FRASE_7K6L_VZD_fragment_4

>  <triplet_in_target>  (1) 
PHEA34GLNA42VALA45

$$$$
FRASE_6XLO_V5J_fragment_3_0_VALA76PHEA115ASPA118
     RDKit          3D

 12 13  0  0  0  0  0  0  0  0999 V2000
   11.5070   -2.9160   79.1470 C   0  0  0  0  0  0  0  0  0  0  0  0
   13.2000   -2.5370   77.4870 C   0  0  0  0  0  0  0  0  0  0  0  0
   14.9090   -2.1240   75.8470 N   0  0  0  0  0  0  0  0  0  0  0  0
   13.6520   -2.0890   76.1640 C   0  0  0  0  0  0  0  0  0  0  0  0
   15.5660   -3.0220   77.9900 C   0  0  0  0  0  0  0  0  0  0  0  0
   14.1520   -3.0020   78.4270 C   0  0  0  0  0  0  0  0  0  0  0  0
   12.5050   -3.3780   80.0150 C   0  0  0  0  0  0  0  0  0  0  0  0
   17.2710   -2.6070   76.2980 C   0  0  0  0  0  0  0  0  0  0  0  0
   11.8590   -2.4890   77.8620 C   0  0  0  0  0  0  0  0  0  0  0  0
   15.8780   -2.5870   76.7440 N   0  0  0  0  0  0  0  0  0  0  0  0
   13.7690   -3.3920   79.6500 N   0  0  0  0  0  0  0  0  0  0  0  0
   16.4360   -3.4420   78.7290 O   0  0  0  0  0  0  0  0  0  0  0  0
  1  7  2  0
  1  9  1  0
  2  4  1  0
  2  6  1  0
  2  9  2  0
  3  4  2  0
  3 10  1  0
  5  6  1  0
  5 10  1  0
  5 12  2  0
  6 11  2  0
  7 11  1  0
  8 10  1  0
M  END
>  <PDBID_FRAGID>  (1) 
FRASE_6XLO_V5J_fragment_3

>  <triplet_in_target>  (1) 
VALA76PHEA115ASPA118

$$$$
FRASE_2FDU_D1G_fragment_2_0_PHEA98THRA101ILEA106
     RDKit          3D

  9  9  0  0  0  0  0  0  0  0999 V2000
   20.8180   12.9250   64.6800 C   0  0  0  0  0  0  0  0  0  0  0  0
   19.5700   12.8010   65.2220 C   0  0  0  0  0  0  0  0  0  0  0  0
   19.1500   14.1170   65.6160 C   0  0  0  0  0  0  0  0  0  0  0  0
   20.1870   14.9690   65.2760 C   0  0  0  0  0  0  0  0  0  0  0  0
   21.2220   14.2790   64.7020 O   0  0  0  0  0  0  0  0  0  0  0  0
   20.3460   16.4410   65.3960 C   0  0  0  0  0  0  0  0  0  0  0  0
   20.0690   17.1630   64.1410 N   0  0  0  0  0  0  0  0  0  0  0  0
   20.9460   16.7390   63.1250 C   0  0  0  0  0  0  0  0  0  0  0  0
   18.7350   17.0030   63.6760 C   0  0  0  0  0  0  0  0  0  0  0  0
  1  2  2  0
  1  5  1  0
  2  3  1  0
  3  4  2  0
  4  5  1  0
  4  6  1  0
  6  7  1  0
  7  8  1  0
  7  9  1  0
M  END
>  <PDBID_FRAGID>  (1) 
FRASE_2FDU_D1G_fragment_2

>  <triplet_in_target>  (1) 
PHEA98THRA101ILEA106

$$$$
FRASE_4E5I_0N9_fragment_1_0_ARGA125GLUA158ILEA168
     RDKit          3D

 11 11  0  0  0  0  0  0  0  0999 V2000
   24.8650    4.5330   82.7280 O   0  0  0  0  0  0  0  0  0  0  0  0
   24.1290    4.6430   81.7200 C   0  0  0  0  0  0  0  0  0  0  0  0
   23.4350    3.6920   81.2870 O   0  0  0  0  0  0  0  0  0  0  0  0
   24.0870    5.9580   80.9970 C   0  0  0  0  0  0  0  0  0  0  0  0
   25.1310    6.9840   81.2280 C   0  0  0  0  0  0  0  0  0  0  0  0
   26.1540    6.7770   82.1020 O   0  0  0  0  0  0  0  0  0  0  0  0
   23.0980    6.2380   80.1170 N   0  0  0  0  0  0  0  0  0  0  0  0
   23.0510    7.4180   79.4440 C   0  0  0  0  0  0  0  0  0  0  0  0
   23.9730    8.3830   79.6200 N   0  0  0  0  0  0  0  0  0  0  0  0
   25.0080    8.2440   80.4610 C   0  0  0  0  0  0  0  0  0  0  0  0
   25.8560    9.1540   80.5960 O   0  0  0  0  0  0  0  0  0  0  0  0
  1  2  2  0
  2  3  1  0
  2  4  1  0
  4  5  2  0
  4  7  1  0
  5  6  1  0
  5 10  1  0
  7  8  2  0
  8  9  1  0
  9 10  1  0
 10 11  2  0
M  END
>  <PDBID_FRAGID>  (1) 
FRASE_4E5I_0N9_fragment_1

>  <triplet_in_target>  (1) 
ARGA125GLUA158ILEA168

$$$$
FRASE_7LM2_Y5Y_fragment_1_0_ILEA58ILEA73ASPA84
     RDKit          3D

  7  7  0  0  0  0  0  0  0  0999 V2000
    8.2710   -2.7590   74.9780 C   0  0  0  0  0  0  0  0  0  0  0  0
    9.2840   -3.6970   75.2180 C   0  0  0  0  0  0  0  0  0  0  0  0
    9.0530   -4.5200   73.0740 C   0  0  0  0  0  0  0  0  0  0  0  0
    8.0850   -3.6540   72.7940 N   0  0  0  0  0  0  0  0  0  0  0  0
    7.6690   -2.7740   73.7040 C   0  0  0  0  0  0  0  0  0  0  0  0
    9.6440   -4.5420   74.2590 N   0  0  0  0  0  0  0  0  0  0  0  0
    9.5040   -5.5070   72.0300 C   0  0  0  0  0  0  0  0  0  0  0  0
  1  2  2  0
  1  5  1  0
  2  6  1  0
  3  4  1  0
  3  6  2  0
  3  7  1  0
  4  5  2  0
M  END
>  <PDBID_FRAGID>  (1) 
FRASE_7LM2_Y5Y_fragment_1

>  <triplet_in_target>  (1) 
ILEA58ILEA73ASPA84

$$$$
FRASE_5G6E_XH8_fragment_1_0_HISA31ALAA51PHEA91
     RDKit          3D

 16 17  0  0  0  0  0  0  0  0999 V2000
   -5.9200    2.7820   65.9550 N   0  0  0  0  0  0  0  0  0  0  0  0
   -5.0870    3.5880   65.0910 C   0  0  0  0  0  0  0  0  0  0  0  0
   -3.8760    4.1410   65.5730 C   0  0  0  0  0  0  0  0  0  0  0  0
   -3.1000    4.9120   64.7160 C   0  0  0  0  0  0  0  0  0  0  0  0
   -3.5510    5.1210   63.3490 C   0  0  0  0  0  0  0  0  0  0  0  0
   -2.7500    5.9190   62.4480 C   0  0  0  0  0  0  0  0  0  0  0  0
   -3.1890    6.1230   61.1050 C   0  0  0  0  0  0  0  0  0  0  0  0
   -4.4010    5.5530   60.6510 C   0  0  0  0  0  0  0  0  0  0  0  0
   -4.8560    5.7740   59.2430 C   0  0  0  0  0  0  0  0  0  0  0  0
   -4.2240    6.9580   58.7160 N   0  0  0  0  0  0  0  0  0  0  0  0
   -4.2400    6.9230   57.2800 C   0  0  0  0  0  0  0  0  0  0  0  0
   -5.6650    7.0980   56.7570 C   0  0  0  0  0  0  0  0  0  0  0  0
   -5.6840    7.3710   55.2210 C   0  0  0  0  0  0  0  0  0  0  0  0
   -5.1800    4.7780   61.5220 C   0  0  0  0  0  0  0  0  0  0  0  0
   -4.7290    4.5640   62.9160 C   0  0  0  0  0  0  0  0  0  0  0  0
   -5.4850    3.8020   63.7960 N   0  0  0  0  0  0  0  0  0  0  0  0
  1  2  1  0
  2  3  2  0
  2 16  1  0
  3  4  1  0
  4  5  2  0
  5  6  1  0
  5 15  1  0
  6  7  2  0
  7  8  1  0
  8  9  1  0
  8 14  2  0
  9 10  1  0
 10 11  1  0
 11 12  1  0
 12 13  1  0
 14 15  1  0
 15 16  2  0
M  END
>  <PDBID_FRAGID>  (1) 
FRASE_5G6E_XH8_fragment_1

>  <triplet_in_target>  (1) 
HISA31ALAA51PHEA91

$$$$
FRASE_3UDP_09D_fragment_2_0_ILEA114ASPA118THRA122
     RDKit          3D

 17 19  0  0  0  0  0  0  0  0999 V2000
   11.9120   13.4920   77.9160 C   0  0  0  0  0  0  0  0  0  0  0  0
   11.2050   14.6030   78.3420 C   0  0  0  0  0  0  0  0  0  0  0  0
   11.6730   12.2540   78.4770 C   0  0  0  0  0  0  0  0  0  0  0  0
   10.2480   14.4980   79.3360 C   0  0  0  0  0  0  0  0  0  0  0  0
   10.7070   12.1550   79.4540 C   0  0  0  0  0  0  0  0  0  0  0  0
   10.0100   13.2520   79.8580 C   0  0  0  0  0  0  0  0  0  0  0  0
    9.2290   11.5560   81.1340 C   0  0  0  0  0  0  0  0  0  0  0  0
    8.9540    8.0990   80.8740 C   0  0  0  0  0  0  0  0  0  0  0  0
    9.4190   10.0010   79.3280 C   0  0  0  0  0  0  0  0  0  0  0  0
   11.2980   10.2110   80.8880 C   0  0  0  0  0  0  0  0  0  0  0  0
    9.8450    8.6310   79.7940 C   0  0  1  0  0  0  0  0  0  0  0  0
   10.2140   10.9610   80.1720 C   0  0  1  0  0  0  0  0  0  0  0  0
    9.1140   12.8990   80.8620 N   0  0  0  0  0  0  0  0  0  0  0  0
   11.2010    8.8450   80.3590 N   0  0  0  0  0  0  0  0  0  0  0  0
    8.6070   10.9070   81.9580 O   0  0  0  0  0  0  0  0  0  0  0  0
    9.3710    7.5310   81.8720 O   0  0  0  0  0  0  0  0  0  0  0  0
    7.6590    8.3420   80.5710 O   0  0  0  0  0  0  0  0  0  0  0  0
  1  2  2  0
  1  3  1  0
  2  4  1  0
  3  5  2  0
  4  6  2  0
  5  6  1  0
  5 12  1  0
  6 13  1  0
  7 12  1  0
  7 13  1  0
  7 15  2  0
 11  8  1  1
  8 16  2  0
  8 17  1  0
  9 11  1  0
 12  9  1  6
 10 12  1  0
 10 14  1  0
 11 14  1  0
M  END
>  <PDBID_FRAGID>  (1) 
FRASE_3UDP_09D_fragment_2

>  <triplet_in_target>  (1) 
ILEA114ASPA118THRA122

$$$$
FRASE_3OM9_OXQ_fragment_1_0_HISA109SERA171ILEA177
     RDKit          3D

  9  9  0  0  0  0  0  0  0  0999 V2000
   18.6530   19.4000   75.2940 O   0  0  0  0  0  0  0  0  0  0  0  0
   18.9520   20.0260   74.2520 C   0  0  0  0  0  0  0  0  0  0  0  0
   19.4980   19.5090   73.2530 O   0  0  0  0  0  0  0  0  0  0  0  0
   18.6190   21.5160   74.1800 C   0  0  0  0  0  0  0  0  0  0  0  0
   17.9400   22.2480   75.1460 C   0  0  0  0  0  0  0  0  0  0  0  0
   17.4490   21.7450   76.3110 O   0  0  0  0  0  0  0  0  0  0  0  0
   18.9230   22.3070   73.1550 N   0  0  0  0  0  0  0  0  0  0  0  0
   18.4200   23.5860   73.4730 O   0  0  0  0  0  0  0  0  0  0  0  0
   17.8060   23.5050   74.7410 N   0  0  0  0  0  0  0  0  0  0  0  0
  1  2  2  0
  2  3  1  0
  2  4  1  0
  4  5  1  0
  4  7  2  0
  5  6  1  0
  5  9  2  0
  7  8  1  0
  8  9  1  0
M  END
>  <PDBID_FRAGID>  (1) 
FRASE_3OM9_OXQ_fragment_1

>  <triplet_in_target>  (1) 
HISA109SERA171ILEA177

$$$$
FRASE_4Q81_7MH_fragment_1_0_PHEA34GLNA42VALA45
     RDKit          3D

 10 10  0  0  0  0  0  0  0  0999 V2000
    2.8300   -3.5780   48.4940 C   0  0  0  0  0  0  0  0  0  0  0  0
    1.7040   -2.7170   48.9930 C   0  0  0  0  0  0  0  0  0  0  0  0
    0.8620   -3.1860   49.9620 C   0  0  0  0  0  0  0  0  0  0  0  0
   -0.2030   -2.4140   50.3870 C   0  0  0  0  0  0  0  0  0  0  0  0
   -1.1340   -2.9340   51.4670 C   0  0  0  0  0  0  0  0  0  0  0  0
   -0.3770   -1.1580   49.8820 C   0  0  0  0  0  0  0  0  0  0  0  0
    0.4780   -0.6830   48.9140 C   0  0  0  0  0  0  0  0  0  0  0  0
    0.2550    0.9250   48.2630 S   0  0  0  0  0  0  0  0  0  0  0  0
    1.4810   -1.4870   48.4290 N   0  0  0  0  0  0  0  0  0  0  0  0
    2.2820   -1.0440   47.4500 O   0  0  0  0  0  0  0  0  0  0  0  0
  1  2  1  0
  2  3  2  0
  2  9  1  0
  3  4  1  0
  4  5  1  0
  4  6  2  0
  6  7  1  0
  7  8  2  0
  7  9  1  0
  9 10  1  0
M  END
>  <PDBID_FRAGID>  (1) 
FRASE_4Q81_7MH_fragment_1

>  <triplet_in_target>  (1) 
PHEA34GLNA42VALA45

$$$$
FRASE_7Z5R_IGQ_fragment_1_0_LYSA70VALA76PHEA115
     RDKit          3D

 12 13  0  0  0  0  0  0  0  0999 V2000
   15.2510   -2.1660   80.9440 C   0  0  0  0  0  0  0  0  0  0  0  0
   10.8380   -3.7860   76.1980 O   0  0  0  0  0  0  0  0  0  0  0  0
   11.8180   -4.4190   76.3990 C   0  0  0  0  0  0  0  0  0  0  0  0
   12.7360   -4.0520   77.4510 N   0  0  0  0  0  0  0  0  0  0  0  0
   12.5050   -2.8890   78.2580 C   0  0  0  0  0  0  0  0  0  0  0  0
   11.5730   -1.9760   78.0250 N   0  0  0  0  0  0  0  0  0  0  0  0
   11.6640   -0.9970   78.9800 O   0  0  0  0  0  0  0  0  0  0  0  0
   12.6870   -1.3110   79.8310 C   0  0  0  0  0  0  0  0  0  0  0  0
   13.2140   -0.5580   81.0690 C   0  0  0  0  0  0  0  0  0  0  0  0
   14.4470   -1.1450   81.7280 C   0  0  0  0  0  0  0  0  0  0  0  0
   14.4190   -3.1540   80.1370 C   0  0  0  0  0  0  0  0  0  0  0  0
   13.2370   -2.5070   79.3950 C   0  0  0  0  0  0  0  0  0  0  0  0
  1 10  1  0
  1 11  1  0
  2  3  2  0
  3  4  1  0
  4  5  1  0
  5  6  2  0
  5 12  1  0
  6  7  1  0
  7  8  1  0
  8  9  1  0
  8 12  2  0
  9 10  1  0
 11 12  1  0
M  END
>  <PDBID_FRAGID>  (1) 
FRASE_7Z5R_IGQ_fragment_1

>  <triplet_in_target>  (1) 
LYSA70VALA76PHEA115

$$$$
FRASE_6JEM_STL_fragment_1_0_HISA109GLUA172ILEA177
     RDKit          3D

 10 10  0  0  0  0  0  0  0  0999 V2000
   20.4240   22.8740   77.0920 C   0  0  0  0  0  0  0  0  0  0  0  0
   20.1790   22.7920   75.7270 C   0  0  0  0  0  0  0  0  0  0  0  0
   19.1010   22.0500   75.2580 C   0  0  0  0  0  0  0  0  0  0  0  0
   18.2670   21.3920   76.1550 C   0  0  0  0  0  0  0  0  0  0  0  0
   18.5130   21.4750   77.5200 C   0  0  0  0  0  0  0  0  0  0  0  0
   19.5910   22.2170   77.9890 C   0  0  0  0  0  0  0  0  0  0  0  0
   17.6260   20.7750   78.4760 C   0  0  0  0  0  0  0  0  0  0  0  0
   16.5890   20.0720   78.0290 C   0  0  0  0  0  0  0  0  0  0  0  0
   18.8600   21.9690   73.9200 O   0  0  0  0  0  0  0  0  0  0  0  0
   21.4810   23.6020   77.5510 O   0  0  0  0  0  0  0  0  0  0  0  0
  1  2  2  0
  1  6  1  0
  1 10  1  0
  2  3  1  0
  3  4  2  0
  3  9  1  0
  4  5  1  0
  5  6  2  0
  5  7  1  0
  7  8  2  0
M  END
>  <PDBID_FRAGID>  (1) 
FRASE_6JEM_STL_fragment_1

>  <triplet_in_target>  (1) 
HISA109GLUA172ILEA177

$$$$
FRASE_7DB3_H2X_fragment_2_0_PHEA21ILEA27ASPA93
     RDKit          3D

 16 16  0  0  0  0  0  0  0  0999 V2000
   12.8830    7.0090   59.9590 C   0  0  0  0  0  0  0  0  0  0  0  0
   12.9520    5.2120   61.6210 C   0  0  2  0  0  0  0  0  0  0  0  0
   12.3730    4.8970   62.9980 C   0  0  0  0  0  0  0  0  0  0  0  0
   14.4620    5.0030   61.7450 C   0  0  0  0  0  0  0  0  0  0  0  0
   12.5140    3.8500   59.5100 C   0  0  0  0  0  0  0  0  0  0  0  0
   13.8830    3.6200   58.8580 C   0  0  0  0  0  0  0  0  0  0  0  0
   11.6070    7.0520   59.1040 C   0  0  0  0  0  0  0  0  0  0  0  0
   10.4170    7.5120   59.6380 C   0  0  0  0  0  0  0  0  0  0  0  0
    9.2760    7.5480   58.8480 C   0  0  0  0  0  0  0  0  0  0  0  0
    9.3140    7.1210   57.5320 C   0  0  0  0  0  0  0  0  0  0  0  0
   10.4990    6.6530   56.9970 C   0  0  0  0  0  0  0  0  0  0  0  0
   11.6410    6.6210   57.7770 C   0  0  0  0  0  0  0  0  0  0  0  0
   12.6410    6.6200   61.3540 N   0  0  0  0  0  0  0  0  0  0  0  0
   12.2140    4.4730   60.5840 N   0  0  0  0  0  0  0  0  0  0  0  0
   12.8300    6.1450   57.2040 O   0  0  0  0  0  0  0  0  0  0  0  0
    7.5870    8.1960   59.5540 Br  0  0  0  0  0  0  0  0  0  0  0  0
  1  7  1  0
  1 13  1  0
  2  3  1  1
  2  4  1  0
  2 13  1  0
  2 14  1  0
  5  6  1  0
  5 14  2  3
  7  8  2  0
  7 12  1  0
  8  9  1  0
  9 10  2  0
  9 16  1  0
 10 11  1  0
 11 12  2  0
 12 15  1  0
M  END
>  <PDBID_FRAGID>  (1) 
FRASE_7DB3_H2X_fragment_2

>  <triplet_in_target>  (1) 
PHEA21ILEA27ASPA93

$$$$
FRASE_4GH2_HK0_fragment_1_0_SERA48VALA53GLUA89
     RDKit          3D

 11 11  0  0  0  0  0  0  0  0999 V2000
   -3.1910    2.2000   69.4620 C   0  0  0  0  0  0  0  0  0  0  0  0
   -4.2850    2.8350   70.0510 C   0  0  0  0  0  0  0  0  0  0  0  0
   -5.4530    3.0620   69.3470 C   0  0  0  0  0  0  0  0  0  0  0  0
   -5.5190    2.6600   68.0170 C   0  0  0  0  0  0  0  0  0  0  0  0
   -6.7320    2.9010   67.3380 N   0  0  0  0  0  0  0  0  0  0  0  0
   -7.2320    2.2240   66.5520 O   0  0  0  0  0  0  0  0  0  0  0  0
   -7.4510    3.9740   67.6220 O   0  0  0  0  0  0  0  0  0  0  0  0
   -4.4300    2.0450   67.3770 C   0  0  0  0  0  0  0  0  0  0  0  0
   -4.5760    1.7100   66.0540 O   0  0  0  0  0  0  0  0  0  0  0  0
   -3.5110    1.0180   65.4070 C   0  0  0  0  0  0  0  0  0  0  0  0
   -3.2840    1.8310   68.1180 C   0  0  0  0  0  0  0  0  0  0  0  0
  1  2  2  0
  1 11  1  0
  2  3  1  0
  3  4  2  0
  4  5  1  0
  4  8  1  0
  5  6  2  0
  5  7  1  0
  8  9  1  0
  8 11  2  0
  9 10  1  0
M  CHG  2   5   1   7  -1
M  END
>  <PDBID_FRAGID>  (1) 
FRASE_4GH2_HK0_fragment_1

>  <triplet_in_target>  (1) 
SERA48VALA53GLUA89

$$$$
FRASE_3IPY_B87_fragment_2_0_LYSA70VALA76PHEA115
     RDKit          3D

  9  9  0  0  0  0  0  0  0  0999 V2000
   16.6180   -0.1380   75.1730 C   0  0  0  0  0  0  0  0  0  0  0  0
   17.8370   -0.2360   75.1790 O   0  0  0  0  0  0  0  0  0  0  0  0
   15.7590   -1.2110   75.8140 C   0  0  0  0  0  0  0  0  0  0  0  0
   16.5770   -2.2740   76.3790 N   0  0  0  0  0  0  0  0  0  0  0  0
   17.3480   -2.0150   77.5970 C   0  0  0  0  0  0  0  0  0  0  0  0
   17.5100   -3.3420   78.3290 C   0  0  0  0  0  0  0  0  0  0  0  0
   18.2490   -4.2110   77.4350 N   0  0  0  0  0  0  0  0  0  0  0  0
   17.8610   -4.3680   76.0410 C   0  0  0  0  0  0  0  0  0  0  0  0
   16.5860   -3.5760   75.7090 C   0  0  0  0  0  0  0  0  0  0  0  0
  1  2  2  0
  1  3  1  0
  3  4  1  0
  4  5  1  0
  4  9  1  0
  5  6  1  0
  6  7  1  0
  7  8  1  0
  8  9  1  0
M  END
>  <PDBID_FRAGID>  (1) 
FRASE_3IPY_B87_fragment_2

>  <triplet_in_target>  (1) 
LYSA70VALA76PHEA115

$$$$
FRASE_7FX9_QX0_fragment_2_0_LEUA38PROA54PHEA88
     RDKit          3D

  8  8  0  0  0  0  0  0  0  0999 V2000
    6.5140   -4.9220   60.9900 C   0  0  0  0  0  0  0  0  0  0  0  0
    6.0230   -4.0930   62.0050 C   0  0  0  0  0  0  0  0  0  0  0  0
    5.6860   -2.3860   60.3590 C   0  0  0  0  0  0  0  0  0  0  0  0
    5.0340   -1.9190   62.6850 C   0  0  0  0  0  0  0  0  0  0  0  0
    6.2290   -2.6400   58.0720 N   0  0  0  0  0  0  0  0  0  0  0  0
    6.2410   -3.2380   59.3650 C   0  0  0  0  0  0  0  0  0  0  0  0
    6.6420   -4.5280   59.6700 C   0  0  0  0  0  0  0  0  0  0  0  0
    5.5960   -2.8010   61.6590 C   0  0  0  0  0  0  0  0  0  0  0  0
  1  2  2  0
  1  7  1  0
  2  8  1  0
  3  6  1  0
  3  8  2  0
  4  8  1  0
  5  6  1  0
  6  7  2  0
M  END
>  <PDBID_FRAGID>  (1) 
FRASE_7FX9_QX0_fragment_2

>  <triplet_in_target>  (1) 
LEUA38PROA54PHEA88

$$$$
FRASE_6RAA_JWN_fragment_3_0_LEUA157ILEA162PHEA173
     RDKit          3D

  6  6  0  0  0  0  0  0  0  0999 V2000
   23.7040   14.8000   83.2620 C   0  0  0  0  0  0  0  0  0  0  0  0
   23.1460   13.6100   83.7080 C   0  0  0  0  0  0  0  0  0  0  0  0
   23.2740   12.4850   82.9010 C   0  0  0  0  0  0  0  0  0  0  0  0
   23.9450   12.6000   81.7010 C   0  0  0  0  0  0  0  0  0  0  0  0
   24.4930   13.7420   81.2590 N   0  0  0  0  0  0  0  0  0  0  0  0
   24.3680   14.8120   82.0460 C   0  0  0  0  0  0  0  0  0  0  0  0
  1  2  2  0
  1  6  1  0
  2  3  1  0
  3  4  2  0
  4  5  1  0
  5  6  2  0
M  END
>  <PDBID_FRAGID>  (1) 
FRASE_6RAA_JWN_fragment_3

>  <triplet_in_target>  (1) 
LEUA157ILEA162PHEA173

$$$$
FRASE_7D1D_1BN_fragment_1_0_PHEA77VALA97ILEA114
     RDKit          3D

  6  6  0  0  0  0  0  0  0  0999 V2000
    7.6830   11.3000   73.7650 C   0  0  0  0  0  0  0  0  0  0  0  0
    8.1970   12.1830   74.6170 C   0  0  0  0  0  0  0  0  0  0  0  0
    6.9710   10.4480   74.4870 N   0  0  0  0  0  0  0  0  0  0  0  0
    7.0260   10.7890   75.7760 C   0  0  0  0  0  0  0  0  0  0  0  0
    7.7950   11.8680   75.8640 N   0  0  0  0  0  0  0  0  0  0  0  0
    6.2370    9.3170   73.8620 C   0  0  0  0  0  0  0  0  0  0  0  0
  1  2  2  0
  1  3  1  0
  2  5  1  0
  3  4  1  0
  3  6  1  0
  4  5  2  0
M  END
>  <PDBID_FRAGID>  (1) 
FRASE_7D1D_1BN_fragment_1

>  <triplet_in_target>  (1) 
PHEA77VALA97ILEA114

$$$$
FRASE_5G6L_XEB_fragment_1_0_HISA31ALAA51PHEA91
     RDKit          3D

 13 14  0  0  0  0  0  0  0  0999 V2000
   -5.3840    3.6250   63.9670 N   0  0  0  0  0  0  0  0  0  0  0  0
   -5.0980    3.1350   65.1940 C   0  0  0  0  0  0  0  0  0  0  0  0
   -5.9760    2.2940   65.7980 N   0  0  0  0  0  0  0  0  0  0  0  0
   -3.9120    3.4870   65.8320 C   0  0  0  0  0  0  0  0  0  0  0  0
   -3.0280    4.3540   65.2000 C   0  0  0  0  0  0  0  0  0  0  0  0
   -3.3440    4.8420   63.9380 C   0  0  0  0  0  0  0  0  0  0  0  0
   -2.4730    5.7060   63.2850 C   0  0  0  0  0  0  0  0  0  0  0  0
   -2.8030    6.1900   62.0240 C   0  0  0  0  0  0  0  0  0  0  0  0
   -3.9920    5.8070   61.4100 C   0  0  0  0  0  0  0  0  0  0  0  0
   -4.8630    4.9430   62.0620 C   0  0  0  0  0  0  0  0  0  0  0  0
   -4.5370    4.4630   63.3270 C   0  0  0  0  0  0  0  0  0  0  0  0
   -4.3120    6.3410   60.0340 C   0  0  0  0  0  0  0  0  0  0  0  0
   -3.0450    6.4710   59.3940 O   0  0  0  0  0  0  0  0  0  0  0  0
  1  2  2  0
  1 11  1  0
  2  3  1  0
  2  4  1  0
  4  5  2  0
  5  6  1  0
  6  7  1  0
  6 11  2  0
  7  8  2  0
  8  9  1  0
  9 10  2  0
  9 12  1  0
 10 11  1  0
 12 13  1  0
M  END
>  <PDBID_FRAGID>  (1) 
FRASE_5G6L_XEB_fragment_1

>  <triplet_in_target>  (1) 
HISA31ALAA51PHEA91

$$$$
FRASE_4OTY_LUR_fragment_1_0_PHEA77VALA97ILEA114
     RDKit          3D

 12 12  0  0  0  0  0  0  0  0999 V2000
    8.4770   11.2560   73.4170 O   0  0  0  0  0  0  0  0  0  0  0  0
    8.9420   12.3590   73.1870 C   0  0  0  0  0  0  0  0  0  0  0  0
   10.2570   12.5390   73.2630 O   0  0  0  0  0  0  0  0  0  0  0  0
    8.0380   13.5090   72.8280 C   0  0  0  0  0  0  0  0  0  0  0  0
    7.9180   14.4380   74.0110 C   0  0  0  0  0  0  0  0  0  0  0  0
    6.8320   14.3500   74.8690 C   0  0  0  0  0  0  0  0  0  0  0  0
    6.7390   15.2160   75.9530 C   0  0  0  0  0  0  0  0  0  0  0  0
    5.5560   15.1120   76.8780 C   0  0  0  0  0  0  0  0  0  0  0  0
    7.7230   16.1750   76.1880 C   0  0  0  0  0  0  0  0  0  0  0  0
    8.8330   16.2980   75.3570 C   0  0  0  0  0  0  0  0  0  0  0  0
    8.9670   15.4550   74.2610 C   0  0  0  0  0  0  0  0  0  0  0  0
   10.0240   15.5350   73.4210 N   0  0  0  0  0  0  0  0  0  0  0  0
  1  2  2  0
  2  3  1  0
  2  4  1  0
  4  5  1  0
  5  6  2  0
  5 11  1  0
  6  7  1  0
  7  8  1  0
  7  9  2  0
  9 10  1  0
 10 11  2  0
 11 12  1  0
M  END
>  <PDBID_FRAGID>  (1) 
FRASE_4OTY_LUR_fragment_1

>  <triplet_in_target>  (1) 
PHEA77VALA97ILEA114

$$$$
FRASE_2YM8_YM8_fragment_1_0_ILEA58GLUA71SERA85
     RDKit          3D

 10 10  0  0  0  0  0  0  0  0999 V2000
    5.9040   -7.4920   70.5070 N   0  0  0  0  0  0  0  0  0  0  0  0
    6.0510   -7.1780   71.5940 C   0  0  0  0  0  0  0  0  0  0  0  0
    7.1130   -5.3430   74.5260 C   0  0  0  0  0  0  0  0  0  0  0  0
    6.9460   -5.6970   73.2650 N   0  0  0  0  0  0  0  0  0  0  0  0
    5.8300   -7.1780   75.2610 N   0  0  0  0  0  0  0  0  0  0  0  0
    6.7470   -5.6810   76.8170 N   0  0  0  0  0  0  0  0  0  0  0  0
    4.9260   -8.6570   73.6740 O   0  0  0  0  0  0  0  0  0  0  0  0
    6.2230   -6.7870   72.9640 C   0  0  0  0  0  0  0  0  0  0  0  0
    6.5710   -6.1030   75.5590 C   0  0  0  0  0  0  0  0  0  0  0  0
    5.6930   -7.5710   73.9860 C   0  0  0  0  0  0  0  0  0  0  0  0
  1  2  3  0
  2  8  1  0
  3  4  2  0
  3  9  1  0
  4  8  1  0
  5  9  2  0
  5 10  1  0
  6  9  1  0
  7 10  1  0
  8 10  2  0
M  END
>  <PDBID_FRAGID>  (1) 
FRASE_2YM8_YM8_fragment_1

>  <triplet_in_target>  (1) 
ILEA58GLUA71SERA85

$$$$
FRASE_3TTE_SMN_fragment_1_0_SERA47VALA53PHEA88
     RDKit          3D

 11 11  0  0  0  0  0  0  0  0999 V2000
   -7.1560   -2.7170   67.5770 C   0  0  0  0  0  0  0  0  0  0  0  0
   -7.0470   -1.6780   66.6560 C   0  0  0  0  0  0  0  0  0  0  0  0
   -6.2000   -0.6050   66.9160 C   0  0  0  0  0  0  0  0  0  0  0  0
   -5.4630   -0.5670   68.0960 C   0  0  0  0  0  0  0  0  0  0  0  0
   -5.5690   -1.6010   69.0170 C   0  0  0  0  0  0  0  0  0  0  0  0
   -6.4130   -2.6740   68.7550 C   0  0  0  0  0  0  0  0  0  0  0  0
   -8.0620   -3.8650   67.3030 C   0  0  1  0  0  0  0  0  0  0  0  0
   -7.4050   -4.8260   66.3190 C   0  0  0  0  0  0  0  0  0  0  0  0
   -8.4850   -4.4680   68.5590 O   0  0  0  0  0  0  0  0  0  0  0  0
   -6.5060   -4.3990   65.5530 O   0  0  0  0  0  0  0  0  0  0  0  0
   -7.7780   -6.0190   66.2610 O   0  0  0  0  0  0  0  0  0  0  0  0
  1  2  2  0
  1  6  1  0
  1  7  1  0
  2  3  1  0
  3  4  2  0
  4  5  1  0
  5  6  2  0
  7  8  1  0
  7  9  1  1
  8 10  2  0
  8 11  1  0
M  END
>  <PDBID_FRAGID>  (1) 
FRASE_3TTE_SMN_fragment_1

>  <triplet_in_target>  (1) 
SERA47VALA53PHEA88

$$$$
FRASE_5SF8_IJQ_fragment_4_0_ILEA106PHEA112ILEA177
     RDKit          3D

  5  5  0  0  0  0  0  0  0  0999 V2000
   19.4080   10.3730   71.4230 C   0  0  0  0  0  0  0  0  0  0  0  0
   18.3440    9.8350   70.7440 N   0  0  0  0  0  0  0  0  0  0  0  0
   17.6880   10.1430   69.4730 C   0  0  0  0  0  0  0  0  0  0  0  0
   17.3780    8.7050   69.4220 C   0  0  0  0  0  0  0  0  0  0  0  0
   17.5260    8.6560   70.8890 C   0  0  0  0  0  0  0  0  0  0  0  0
  1  2  1  0
  2  3  1  0
  2  5  1  0
  3  4  1  0
  4  5  1  0
M  END
>  <PDBID_FRAGID>  (1) 
FRASE_5SF8_IJQ_fragment_4

>  <triplet_in_target>  (1) 
ILEA106PHEA112ILEA177

$$$$
FRASE_2GG5_U19_fragment_2_0_ASPA105PHEA112HISA175
     RDKit          3D

  9  9  0  0  0  0  0  0  0  0999 V2000
   24.6640   14.2470   71.9160 N   0  0  0  0  0  0  0  0  0  0  0  0
   23.7550   13.5150   72.3180 N   0  0  0  0  0  0  0  0  0  0  0  0
   22.4590   13.6490   71.9320 C   0  0  0  0  0  0  0  0  0  0  0  0
   21.8390   14.6130   71.0270 C   0  0  0  0  0  0  0  0  0  0  0  0
   22.5110   15.5960   70.3660 N   0  0  0  0  0  0  0  0  0  0  0  0
   20.5200   14.3770   70.9440 N   0  0  0  0  0  0  0  0  0  0  0  0
   20.1770   13.2790   71.7610 N   0  0  0  0  0  0  0  0  0  0  0  0
   21.3220   12.8380   72.3590 C   0  0  0  0  0  0  0  0  0  0  0  0
   21.4600   11.7910   73.2210 N   0  0  0  0  0  0  0  0  0  0  0  0
  1  2  2  0
  2  3  1  0
  3  4  1  0
  3  8  2  0
  4  5  2  0
  4  6  1  0
  6  7  2  0
  7  8  1  0
  8  9  1  0
M  END
>  <PDBID_FRAGID>  (1) 
FRASE_2GG5_U19_fragment_2

>  <triplet_in_target>  (1) 
ASPA105PHEA112HISA175

$$$$
FRASE_5W1E_PHB_fragment_1_0_LEUA59ALAA66PHEA69
     RDKit          3D

 10 10  0  0  0  0  0  0  0  0999 V2000
   13.0600    1.5080   64.4080 C   0  0  0  0  0  0  0  0  0  0  0  0
   12.0620    0.9790   64.9640 O   0  0  0  0  0  0  0  0  0  0  0  0
   13.0660    1.6680   63.1580 O   0  0  0  0  0  0  0  0  0  0  0  0
   14.2600    1.9610   65.2430 C   0  0  0  0  0  0  0  0  0  0  0  0
   14.2590    1.7890   66.6180 C   0  0  0  0  0  0  0  0  0  0  0  0
   15.3480    2.2020   67.3710 C   0  0  0  0  0  0  0  0  0  0  0  0
   16.4400    2.7890   66.7500 C   0  0  0  0  0  0  0  0  0  0  0  0
   16.4410    2.9630   65.3760 C   0  0  0  0  0  0  0  0  0  0  0  0
   15.3520    2.5490   64.6240 C   0  0  0  0  0  0  0  0  0  0  0  0
   17.5410    3.2080   67.5110 O   0  0  0  0  0  0  0  0  0  0  0  0
  1  2  2  0
  1  3  1  0
  1  4  1  0
  4  5  2  0
  4  9  1  0
  5  6  1  0
  6  7  2  0
  7  8  1  0
  7 10  1  0
  8  9  2  0
M  END
>  <PDBID_FRAGID>  (1) 
FRASE_5W1E_PHB_fragment_1

>  <triplet_in_target>  (1) 
LEUA59ALAA66PHEA69

$$$$
FRASE_5J58_N56_fragment_1_0_VALA53SERA80ASPA90
     RDKit          3D

 10 10  0  0  0  0  0  0  0  0999 V2000
   -5.6120    2.0680   70.3190 Cl  0  0  0  0  0  0  0  0  0  0  0  0
   -5.5350    1.2230   68.7970 C   0  0  0  0  0  0  0  0  0  0  0  0
   -4.8290    1.7880   67.7550 C   0  0  0  0  0  0  0  0  0  0  0  0
   -4.7900    1.0930   66.5640 C   0  0  0  0  0  0  0  0  0  0  0  0
   -3.9080    1.7680   65.2220 Cl  0  0  0  0  0  0  0  0  0  0  0  0
   -6.1830    0.0130   68.6710 C   0  0  0  0  0  0  0  0  0  0  0  0
   -6.1320   -0.6730   67.4640 C   0  0  0  0  0  0  0  0  0  0  0  0
   -5.4250   -0.1200   66.4040 C   0  0  0  0  0  0  0  0  0  0  0  0
   -6.8350   -1.9980   67.3080 C   0  0  0  0  0  0  0  0  0  0  0  0
   -5.9210   -3.1320   67.4920 N   0  0  0  0  0  0  0  0  0  0  0  0
  1  2  1  0
  2  3  2  0
  2  6  1  0
  3  4  1  0
  4  5  1  0
  4  8  2  0
  6  7  2  0
  7  8  1  0
  7  9  1  0
  9 10  1  0
M  END
>  <PDBID_FRAGID>  (1) 
FRASE_5J58_N56_fragment_1

>  <triplet_in_target>  (1) 
VALA53SERA80ASPA90

$$$$
FRASE_5NAK_KYN_fragment_1_0_LEUA64ARGA72LEUA94
     RDKit          3D

 14 14  0  0  0  0  0  0  0  0999 V2000
   19.3590    3.3970   67.3880 C   0  0  0  0  0  0  0  0  0  0  0  0
   18.9590    4.2880   69.7080 N   0  0  0  0  0  0  0  0  0  0  0  0
   20.5630    3.4170   67.5070 O   0  0  0  0  0  0  0  0  0  0  0  0
   17.0850    6.3220   68.4770 C   0  0  0  0  0  0  0  0  0  0  0  0
   14.6910    7.8640   69.2070 N   0  0  0  0  0  0  0  0  0  0  0  0
   16.5250    5.8820   69.4700 O   0  0  0  0  0  0  0  0  0  0  0  0
   18.3910    4.1260   68.3590 C   0  0  1  0  0  0  0  0  0  0  0  0
   18.1190    5.5000   67.7420 C   0  0  0  0  0  0  0  0  0  0  0  0
   15.6360    8.4150   68.3820 C   0  0  0  0  0  0  0  0  0  0  0  0
   17.4270    9.5720   66.5550 C   0  0  0  0  0  0  0  0  0  0  0  0
   15.4500    9.7240   67.9040 C   0  0  0  0  0  0  0  0  0  0  0  0
   16.7820    7.6940   67.9510 C   0  0  0  0  0  0  0  0  0  0  0  0
   16.3390   10.2910   67.0020 C   0  0  0  0  0  0  0  0  0  0  0  0
   17.6580    8.2890   67.0320 C   0  0  0  0  0  0  0  0  0  0  0  0
  1  3  2  0
  1  7  1  0
  7  2  1  1
  4  6  2  0
  4  8  1  0
  4 12  1  0
  5  9  1  0
  7  8  1  0
  9 11  2  0
  9 12  1  0
 10 13  2  0
 10 14  1  0
 11 13  1  0
 12 14  2  0
M  END
>  <PDBID_FRAGID>  (1) 
FRASE_5NAK_KYN_fragment_1

>  <triplet_in_target>  (1) 
LEUA64ARGA72LEUA94

$$$$
FRASE_3R6I_JMS_fragment_1_0_PHEA69PHEA115ASNA133
     RDKit          3D

 10 10  0  0  0  0  0  0  0  0999 V2000
   10.0480   -1.1460   78.6150 O   0  0  0  0  0  0  0  0  0  0  0  0
   11.0630   -1.8460   78.4430 C   0  0  0  0  0  0  0  0  0  0  0  0
   11.1510   -2.6480   77.5230 O   0  0  0  0  0  0  0  0  0  0  0  0
   12.1270   -1.7560   79.5150 C   0  0  0  0  0  0  0  0  0  0  0  0
   11.6550   -1.5470   80.8370 C   0  0  0  0  0  0  0  0  0  0  0  0
   12.5700   -1.4030   81.9190 C   0  0  0  0  0  0  0  0  0  0  0  0
   13.9570   -1.4760   81.6330 C   0  0  0  0  0  0  0  0  0  0  0  0
   14.4220   -1.6560   80.3040 C   0  0  0  0  0  0  0  0  0  0  0  0
   13.5010   -1.8320   79.2210 C   0  0  0  0  0  0  0  0  0  0  0  0
   13.9690   -1.9770   77.9410 N   0  0  0  0  0  0  0  0  0  0  0  0
  1  2  2  0
  2  3  1  0
  2  4  1  0
  4  5  2  0
  4  9  1  0
  5  6  1  0
  6  7  2  0
  7  8  1  0
  8  9  2  0
  9 10  1  0
M  END
>  <PDBID_FRAGID>  (1) 
FRASE_3R6I_JMS_fragment_1

>  <triplet_in_target>  (1) 
PHEA69PHEA115ASNA133

$$$$
FRASE_6EAS_J3A_fragment_4_0_LEUA28PHEA34VALA45
     RDKit          3D

  7  7  0  0  0  0  0  0  0  0999 V2000
    3.4460   -2.1220   48.1300 N   0  0  0  0  0  0  0  0  0  0  0  0
    2.8220   -1.8740   49.3410 C   0  0  0  0  0  0  0  0  0  0  0  0
    3.1680   -2.5470   50.4360 N   0  0  0  0  0  0  0  0  0  0  0  0
    2.3440   -2.0720   51.4060 N   0  0  0  0  0  0  0  0  0  0  0  0
    1.5070   -1.1410   50.9520 C   0  0  0  0  0  0  0  0  0  0  0  0
    1.7640   -0.9950   49.6120 C   0  0  0  0  0  0  0  0  0  0  0  0
    0.5160   -0.4790   51.8450 C   0  0  0  0  0  0  0  0  0  0  0  0
  1  2  1  0
  2  3  2  0
  2  6  1  0
  3  4  1  0
  4  5  1  0
  5  6  2  0
  5  7  1  0
M  END
>  <PDBID_FRAGID>  (1) 
FRASE_6EAS_J3A_fragment_4

>  <triplet_in_target>  (1) 
LEUA28PHEA34VALA45

$$$$
FRASE_6BVS_4AA_fragment_1_0_PHEA112THRA122GLUA172
     RDKit          3D

 12 12  0  0  0  0  0  0  0  0999 V2000
   20.0630    5.7800   83.2000 O   0  0  0  0  0  0  0  0  0  0  0  0
   20.9200    5.6100   82.2800 C   0  0  0  0  0  0  0  0  0  0  0  0
   21.4250    4.4540   82.0370 O   0  0  0  0  0  0  0  0  0  0  0  0
   21.3610    6.8530   81.4910 C   0  0  0  0  0  0  0  0  0  0  0  0
   21.4470    6.8590   80.1000 C   0  0  0  0  0  0  0  0  0  0  0  0
   21.8470    8.0140   79.4320 C   0  0  0  0  0  0  0  0  0  0  0  0
   22.1630    9.1650   80.1520 C   0  0  0  0  0  0  0  0  0  0  0  0
   22.6870   10.6650   79.3200 Cl  0  0  0  0  0  0  0  0  0  0  0  0
   22.0820    9.1540   81.5380 C   0  0  0  0  0  0  0  0  0  0  0  0
   22.4300   10.3020   82.2690 O   0  0  0  0  0  0  0  0  0  0  0  0
   21.6760    8.0050   82.2010 C   0  0  0  0  0  0  0  0  0  0  0  0
   21.5980    7.9970   83.6510 N   0  0  0  0  0  0  0  0  0  0  0  0
  1  2  2  0
  2  3  1  0
  2  4  1  0
  4  5  2  0
  4 11  1  0
  5  6  1  0
  6  7  2  0
  7  8  1  0
  7  9  1  0
  9 10  1  0
  9 11  2  0
 11 12  1  0
M  END
>  <PDBID_FRAGID>  (1) 
FRASE_6BVS_4AA_fragment_1

>  <triplet_in_target>  (1) 
PHEA112THRA122GLUA172

$$$$
FRASE_8IS4_URF_fragment_1_0_GLUA71VALA76SERA85
     RDKit          3D

  9  9  0  0  0  0  0  0  0  0999 V2000
    9.9850    0.4290   68.1840 N   0  0  0  0  0  0  0  0  0  0  0  0
    8.8490   -0.1840   67.7480 C   0  0  0  0  0  0  0  0  0  0  0  0
    8.7270   -0.2780   66.3750 N   0  0  0  0  0  0  0  0  0  0  0  0
    9.6270    0.1670   65.4220 C   0  0  0  0  0  0  0  0  0  0  0  0
   10.8020    0.8020   66.0240 C   0  0  0  0  0  0  0  0  0  0  0  0
   10.9410    0.9100   67.3490 C   0  0  0  0  0  0  0  0  0  0  0  0
    7.9990   -0.6040   68.4910 O   0  0  0  0  0  0  0  0  0  0  0  0
    9.3980    0.0060   64.2340 O   0  0  0  0  0  0  0  0  0  0  0  0
   11.7600    1.2860   65.2220 F   0  0  0  0  0  0  0  0  0  0  0  0
  1  2  1  0
  1  6  1  0
  2  3  1  0
  2  7  2  0
  3  4  1  0
  4  5  1  0
  4  8  2  0
  5  6  2  0
  5  9  1  0
M  END
>  <PDBID_FRAGID>  (1) 
FRASE_8IS4_URF_fragment_1

>  <triplet_in_target>  (1) 
GLUA71VALA76SERA85

$$$$
FRASE_5SB1_1JI_fragment_1_0_LEUA28PHEA34VALA45
     RDKit          3D

 11 12  0  0  0  0  0  0  0  0999 V2000
    0.2330   -3.8500   51.1370 C   0  0  0  0  0  0  0  0  0  0  0  0
    1.3390   -1.5460   50.1270 C   0  0  0  0  0  0  0  0  0  0  0  0
   -0.0820   -1.7080   50.2470 C   0  0  0  0  0  0  0  0  0  0  0  0
   -0.6450   -2.8420   50.7490 C   0  0  0  0  0  0  0  0  0  0  0  0
    0.0600   -5.1490   51.7030 C   0  0  0  0  0  0  0  0  0  0  0  0
    1.3220   -5.6700   51.8840 C   0  0  0  0  0  0  0  0  0  0  0  0
   -0.6310    0.4780   49.6010 C   0  0  0  0  0  0  0  0  0  0  0  0
   -1.0510   -0.7870   49.8620 O   0  0  0  0  0  0  0  0  0  0  0  0
    1.6450   -3.6200   50.9870 C   0  0  0  0  0  0  0  0  0  0  0  0
    2.2340   -2.4930   50.4860 N   0  0  0  0  0  0  0  0  0  0  0  0
    2.2930   -4.7660   51.4570 N   0  0  0  0  0  0  0  0  0  0  0  0
  1  4  2  0
  1  5  1  0
  1  9  1  0
  2  3  2  0
  2 10  1  0
  3  4  1  0
  3  8  1  0
  5  6  2  0
  6 11  1  0
  7  8  1  0
  9 10  2  0
  9 11  1  0
M  END
>  <PDBID_FRAGID>  (1) 
FRASE_5SB1_1JI_fragment_1

>  <triplet_in_target>  (1) 
LEUA28PHEA34VALA45

$$$$
FRASE_4FTR_5HK_fragment_2_0_SERA48VALA53GLUA89
     RDKit          3D

 11 11  0  0  0  0  0  0  0  0999 V2000
   -3.1800    2.3650   69.4170 C   0  0  0  0  0  0  0  0  0  0  0  0
   -3.2930    1.8920   68.1070 C   0  0  0  0  0  0  0  0  0  0  0  0
   -4.4540    2.0520   67.3600 C   0  0  0  0  0  0  0  0  0  0  0  0
   -4.5870    1.6550   66.0510 O   0  0  0  0  0  0  0  0  0  0  0  0
   -3.4630    1.0600   65.4060 C   0  0  0  0  0  0  0  0  0  0  0  0
   -4.2910    2.9990   69.9830 C   0  0  0  0  0  0  0  0  0  0  0  0
   -5.4690    3.1510   69.2790 C   0  0  0  0  0  0  0  0  0  0  0  0
   -5.5510    2.6920   67.9760 C   0  0  0  0  0  0  0  0  0  0  0  0
   -6.8170    2.9360   67.2750 N   0  0  0  0  0  0  0  0  0  0  0  0
   -7.4750    3.9170   67.5860 O   0  0  0  0  0  0  0  0  0  0  0  0
   -7.1820    2.1310   66.4340 O   0  0  0  0  0  0  0  0  0  0  0  0
  1  2  2  0
  1  6  1  0
  2  3  1  0
  3  4  1  0
  3  8  2  0
  4  5  1  0
  6  7  2  0
  7  8  1  0
  8  9  1  0
  9 10  2  0
  9 11  1  0
M  CHG  2   9   1  11  -1
M  END
>  <PDBID_FRAGID>  (1) 
FRASE_4FTR_5HK_fragment_2

>  <triplet_in_target>  (1) 
SERA48VALA53GLUA89

$$$$
FRASE_3U3R_NPO_fragment_1_0_VALA76HISA109PHEA115
     RDKit          3D

 10 10  0  0  0  0  0  0  0  0999 V2000
    9.7610    9.5890   80.6520 C   0  0  0  0  0  0  0  0  0  0  0  0
   10.4230   10.6660   81.2870 C   0  0  0  0  0  0  0  0  0  0  0  0
   11.6300   10.4680   82.0280 C   0  0  0  0  0  0  0  0  0  0  0  0
   12.2400    9.2030   81.9550 C   0  0  0  0  0  0  0  0  0  0  0  0
   11.6570    8.1600   81.1770 C   0  0  0  0  0  0  0  0  0  0  0  0
   10.3930    8.3390   80.5470 C   0  0  0  0  0  0  0  0  0  0  0  0
   13.5360    9.0860   82.4240 O   0  0  0  0  0  0  0  0  0  0  0  0
    8.4520    9.7990   80.0660 N   0  0  0  0  0  0  0  0  0  0  0  0
    7.8420    8.8060   79.5490 O   0  0  0  0  0  0  0  0  0  0  0  0
    7.8840   10.8860   80.0380 O   0  0  0  0  0  0  0  0  0  0  0  0
  1  2  2  0
  1  6  1  0
  1  8  1  0
  2  3  1  0
  3  4  2  0
  4  5  1  0
  4  7  1  0
  5  6  2  0
  8  9  2  0
  8 10  1  0
M  CHG  2   8   1  10  -1
M  END
>  <PDBID_FRAGID>  (1) 
FRASE_3U3R_NPO_fragment_1

>  <triplet_in_target>  (1) 
VALA76HISA109PHEA115

$$$$
FRASE_5CC2_CKA_fragment_2_0_ILEA58ILEA73SERA85
     RDKit          3D

 15 16  0  0  0  0  0  0  0  0999 V2000
   10.3710   -6.0430   74.2120 C   0  0  0  0  0  0  0  0  0  0  0  0
   11.0900   -5.5490   73.1320 C   0  0  0  0  0  0  0  0  0  0  0  0
   10.6020   -5.7930   71.8320 C   0  0  0  0  0  0  0  0  0  0  0  0
    9.4360   -6.5050   71.5970 C   0  0  0  0  0  0  0  0  0  0  0  0
    8.7140   -7.0020   72.7050 C   0  0  0  0  0  0  0  0  0  0  0  0
    6.8230   -8.2120   73.5540 C   0  0  0  0  0  0  0  0  0  0  0  0
    5.5550   -8.9770   73.1110 C   0  0  0  0  0  0  0  0  0  0  0  0
    7.5550   -7.7130   72.5270 N   0  0  0  0  0  0  0  0  0  0  0  0
    9.1790   -6.7730   74.0260 C   0  0  0  0  0  0  0  0  0  0  0  0
    7.2160   -8.0290   74.8580 C   0  0  0  0  0  0  0  0  0  0  0  0
    8.4220   -7.2960   75.1920 C   0  0  0  0  0  0  0  0  0  0  0  0
    8.8140   -7.1030   76.3560 O   0  0  0  0  0  0  0  0  0  0  0  0
   11.4990   -5.1750   70.4600 Cl  0  0  0  0  0  0  0  0  0  0  0  0
    5.1170   -9.8370   73.9020 O   0  0  0  0  0  0  0  0  0  0  0  0
    5.1100   -8.6290   71.9880 O   0  0  0  0  0  0  0  0  0  0  0  0
  1  2  1  0
  1  9  1  0
  2  3  1  0
  3  4  1  0
  3 13  1  0
  4  5  1  0
  5  8  1  0
  5  9  1  0
  6  7  1  0
  6  8  1  0
  6 10  1  0
  7 14  1  0
  7 15  1  0
  9 11  1  0
 10 11  1  0
 11 12  1  0
M  END
>  <PDBID_FRAGID>  (1) 
FRASE_5CC2_CKA_fragment_2

>  <triplet_in_target>  (1) 
ILEA58ILEA73SERA85

$$$$
FRASE_6P7G_E7M_fragment_3_0_ILEA106LEUA170ILEA177
     RDKit          3D

 12 12  0  0  0  0  0  0  0  0999 V2000
   15.3960   20.8530   75.0850 C   0  0  0  0  0  0  0  0  0  0  0  0
   16.7450   20.5490   75.2460 C   0  0  0  0  0  0  0  0  0  0  0  0
   17.1590   19.5160   76.2490 C   0  0  0  0  0  0  0  0  0  0  0  0
   17.7140   21.2610   74.5090 C   0  0  0  0  0  0  0  0  0  0  0  0
   17.2800   22.2330   73.6040 C   0  0  0  0  0  0  0  0  0  0  0  0
   15.9340   22.5070   73.4420 C   0  0  0  0  0  0  0  0  0  0  0  0
   19.2040   20.9500   74.6960 C   0  0  0  0  0  0  0  0  0  0  0  0
   20.2970   21.2460   72.5340 C   0  0  0  0  0  0  0  0  0  0  0  0
   20.8240   22.3480   71.6380 C   0  0  0  0  0  0  0  0  0  0  0  0
   13.6100   22.1490   74.0050 N   0  0  0  0  0  0  0  0  0  0  0  0
   20.1270   21.7450   73.9030 N   0  0  0  0  0  0  0  0  0  0  0  0
   14.9830   21.8240   74.1820 C   0  0  0  0  0  0  0  0  0  0  0  0
  1  2  2  0
  1 12  1  0
  2  3  1  0
  2  4  1  0
  4  5  2  0
  4  7  1  0
  5  6  1  0
  6 12  2  0
  7 11  1  0
  8  9  1  0
  8 11  1  0
 10 12  1  0
M  END
>  <PDBID_FRAGID>  (1) 
FRASE_6P7G_E7M_fragment_3

>  <triplet_in_target>  (1) 
ILEA106LEUA170ILEA177

$$$$
FRASE_5HC2_IMD_fragment_2_0_HISA109GLUA172ILEA177
     RDKit          3D

  5  5  0  0  0  0  0  0  0  0999 V2000
   18.1600   20.2390   75.8100 N   0  0  0  0  0  0  0  0  0  0  0  0
   17.6970   20.0910   77.0720 C   0  0  0  0  0  0  0  0  0  0  0  0
   18.0590   21.1680   77.7930 N   0  0  0  0  0  0  0  0  0  0  0  0
   18.7690   21.9990   76.9960 C   0  0  0  0  0  0  0  0  0  0  0  0
   18.8210   21.4170   75.7400 C   0  0  0  0  0  0  0  0  0  0  0  0
  1  2  1  0
  1  5  1  0
  2  3  2  0
  3  4  1  0
  4  5  2  0
M  END
>  <PDBID_FRAGID>  (1) 
FRASE_5HC2_IMD_fragment_2

>  <triplet_in_target>  (1) 
HISA109GLUA172ILEA177

$$$$
FRASE_5SF8_IJQ_fragment_4_0_ILEA156ILEA162PHEA173
     RDKit          3D

  5  5  0  0  0  0  0  0  0  0999 V2000
   27.1170   17.1230   81.3780 C   0  0  0  0  0  0  0  0  0  0  0  0
   28.3980   16.9760   81.8470 N   0  0  0  0  0  0  0  0  0  0  0  0
   29.4980   16.0640   81.5340 C   0  0  0  0  0  0  0  0  0  0  0  0
   30.3750   17.1840   81.9120 C   0  0  0  0  0  0  0  0  0  0  0  0
   29.2660   17.7370   82.7120 C   0  0  0  0  0  0  0  0  0  0  0  0
  1  2  1  0
  2  3  1  0
  2  5  1  0
  3  4  1  0
  4  5  1  0
M  END
>  <PDBID_FRAGID>  (1) 
FRASE_5SF8_IJQ_fragment_4

>  <triplet_in_target>  (1) 
ILEA156ILEA162PHEA173

$$$$
FRASE_4NW7_2O5_fragment_1_0_PHEA69PHEA115LEUA135
     RDKit          3D

 11 11  0  0  0  0  0  0  0  0999 V2000
   22.9300   -6.6970   79.3830 O   0  0  0  0  0  0  0  0  0  0  0  0
   21.7900   -6.5470   78.9720 C   0  0  0  0  0  0  0  0  0  0  0  0
   20.7540   -6.8460   79.7800 O   0  0  0  0  0  0  0  0  0  0  0  0
   21.6080   -6.0690   77.5490 C   0  0  0  0  0  0  0  0  0  0  0  0
   20.2300   -5.4430   77.3810 C   0  0  0  0  0  0  0  0  0  0  0  0
   20.0300   -4.0810   77.6380 C   0  0  0  0  0  0  0  0  0  0  0  0
   18.7730   -3.4950   77.3940 C   0  0  0  0  0  0  0  0  0  0  0  0
   19.1820   -6.2080   76.8460 C   0  0  0  0  0  0  0  0  0  0  0  0
   17.9330   -5.6320   76.6080 C   0  0  0  0  0  0  0  0  0  0  0  0
   17.7190   -4.2790   76.8730 C   0  0  0  0  0  0  0  0  0  0  0  0
   16.4610   -3.7430   76.7290 N   0  0  0  0  0  0  0  0  0  0  0  0
  1  2  2  0
  2  3  1  0
  2  4  1  0
  4  5  1  0
  5  6  2  0
  5  8  1  0
  6  7  1  0
  7 10  2  0
  8  9  2  0
  9 10  1  0
 10 11  1  0
M  END
>  <PDBID_FRAGID>  (1) 
FRASE_4NW7_2O5_fragment_1

>  <triplet_in_target>  (1) 
PHEA69PHEA115LEUA135

$$$$
FRASE_5SAX_1IM_fragment_2_0_LEUA28PHEA34VALA45
     RDKit          3D

  7  7  0  0  0  0  0  0  0  0999 V2000
   -0.4000   -1.4370   49.9840 C   0  0  0  0  0  0  0  0  0  0  0  0
    0.4390   -2.4790   50.4310 C   0  0  0  0  0  0  0  0  0  0  0  0
    1.8240   -2.4090   50.2310 C   0  0  0  0  0  0  0  0  0  0  0  0
    2.1330   -4.4390   51.3220 C   0  0  0  0  0  0  0  0  0  0  0  0
    0.7600   -4.5830   51.5680 C   0  0  0  0  0  0  0  0  0  0  0  0
   -0.0980   -3.5860   51.1250 C   0  0  0  0  0  0  0  0  0  0  0  0
    2.6590   -3.3780   50.6770 N   0  0  0  0  0  0  0  0  0  0  0  0
  1  2  1  0
  2  3  2  0
  2  6  1  0
  3  7  1  0
  4  5  1  0
  4  7  2  0
  5  6  2  0
M  END
>  <PDBID_FRAGID>  (1) 
FRASE_5SAX_1IM_fragment_2

>  <triplet_in_target>  (1) 
LEUA28PHEA34VALA45

$$$$
FRASE_5EVY_SAL_fragment_1_0_PHEA34ARGA50LEUA86
     RDKit          3D

 10 10  0  0  0  0  0  0  0  0999 V2000
   -2.9210    6.2510   60.3180 C   0  0  0  0  0  0  0  0  0  0  0  0
   -1.7590    5.8090   60.1770 O   0  0  0  0  0  0  0  0  0  0  0  0
   -3.6930    6.4160   59.3320 O   0  0  0  0  0  0  0  0  0  0  0  0
   -3.3780    6.5340   61.7320 C   0  0  0  0  0  0  0  0  0  0  0  0
   -4.7150    7.1580   62.0490 C   0  0  0  0  0  0  0  0  0  0  0  0
   -5.0530    7.3560   63.3940 C   0  0  0  0  0  0  0  0  0  0  0  0
   -4.1580    6.9760   64.3960 C   0  0  0  0  0  0  0  0  0  0  0  0
   -2.9140    6.3960   64.0980 C   0  0  0  0  0  0  0  0  0  0  0  0
   -2.5260    6.1720   62.7880 C   0  0  0  0  0  0  0  0  0  0  0  0
   -5.5980    7.5270   61.0670 O   0  0  0  0  0  0  0  0  0  0  0  0
  1  2  2  0
  1  3  1  0
  1  4  1  0
  4  5  2  0
  4  9  1  0
  5  6  1  0
  5 10  1  0
  6  7  2  0
  7  8  1  0
  8  9  2  0
M  END
>  <PDBID_FRAGID>  (1) 
FRASE_5EVY_SAL_fragment_1

>  <triplet_in_target>  (1) 
PHEA34ARGA50LEUA86

$$$$
FRASE_5JO2_A8S_fragment_1_0_THRA23LEUA29LEUA92
     RDKit          3D

 18 18  0  0  0  0  0  0  0  0999 V2000
   15.9340   11.0500   56.1990 C   0  0  0  0  0  0  0  0  0  0  0  0
   16.0870    9.6930   55.5950 C   0  0  0  0  0  0  0  0  0  0  0  0
   15.5210    8.5950   56.1810 C   0  0  0  0  0  0  0  0  0  0  0  0
   14.0870    8.6370   56.5870 C   0  0  0  0  0  0  0  0  0  0  0  0
   13.3160    7.5110   56.5020 C   0  0  0  0  0  0  0  0  0  0  0  0
   16.1880    7.2690   56.0380 C   0  0  0  0  0  0  0  0  0  0  0  0
   11.8300    7.5990   56.6130 C   0  0  1  0  0  0  0  0  0  0  0  0
   11.4660    8.9230   56.7400 O   0  0  0  0  0  0  0  0  0  0  0  0
   11.2320    7.0630   55.3300 C   0  0  0  0  0  0  0  0  0  0  0  0
   10.9700    5.6010   55.2090 C   0  0  0  0  0  0  0  0  0  0  0  0
   11.0690    4.7740   56.4430 C   0  0  0  0  0  0  0  0  0  0  0  0
   10.7530    3.5930   56.4090 O   0  0  0  0  0  0  0  0  0  0  0  0
   11.5560    5.3760   57.7180 C   0  0  0  0  0  0  0  0  0  0  0  0
   11.3620    6.8530   57.8260 C   0  0  1  0  0  0  0  0  0  0  0  0
   14.8030   11.6010   56.2460 O   0  0  0  0  0  0  0  0  0  0  0  0
   10.8050    7.9950   54.2500 C   0  0  0  0  0  0  0  0  0  0  0  0
   12.1050    7.3320   59.0300 C   0  0  0  0  0  0  0  0  0  0  0  0
    9.9160    7.1440   58.0530 C   0  0  0  0  0  0  0  0  0  0  0  0
  1  2  1  0
  1 15  1  0
  2  3  2  3
  3  4  1  0
  3  6  1  0
  4  5  2  3
  5  7  1  0
  7  8  1  1
  7  9  1  0
  7 14  1  0
  9 10  2  0
  9 16  1  0
 10 11  1  0
 11 12  2  0
 11 13  1  0
 13 14  1  0
 14 17  1  1
 14 18  1  0
M  END
>  <PDBID_FRAGID>  (1) 
FRASE_5JO2_A8S_fragment_1

>  <triplet_in_target>  (1) 
THRA23LEUA29LEUA92

$$$$
FRASE_6BFW_DK7_fragment_2_0_ILEA114ASPA118THRA122
     RDKit          3D

 12 12  0  0  0  0  0  0  0  0999 V2000
   11.8630   11.0190   79.1350 C   0  0  0  0  0  0  0  0  0  0  0  0
   11.0830   10.6870   80.4130 C   0  0  0  0  0  0  0  0  0  0  0  0
   10.8040    9.2000   80.6160 C   0  0  2  0  0  0  0  0  0  0  0  0
   10.0840    8.6840   79.4910 O   0  0  0  0  0  0  0  0  0  0  0  0
    9.9640    8.9130   81.8730 C   0  0  2  0  0  0  0  0  0  0  0  0
    9.7430    7.4650   81.9920 N   0  0  0  0  0  0  0  0  0  0  0  0
    8.8520    7.1230   83.1130 C   0  0  0  0  0  0  0  0  0  0  0  0
    7.5290    7.8650   82.9660 C   0  0  2  0  0  0  0  0  0  0  0  0
    6.9300    7.4050   81.7650 O   0  0  0  0  0  0  0  0  0  0  0  0
    5.5930    7.9160   81.6560 C   0  0  0  0  0  0  0  0  0  0  0  0
    7.8090    9.2680   82.9500 O   0  0  0  0  0  0  0  0  0  0  0  0
    8.6110    9.6270   81.8110 C   0  0  0  0  0  0  0  0  0  0  0  0
  1  2  1  0
  2  3  1  0
  3  4  1  6
  3  5  1  0
  5  6  1  0
  5 12  1  6
  6  7  1  0
  7  8  1  0
  8  9  1  6
  8 11  1  0
  9 10  1  0
 11 12  1  0
M  END
>  <PDBID_FRAGID>  (1) 
FRASE_6BFW_DK7_fragment_2

>  <triplet_in_target>  (1) 
ILEA114ASPA118THRA122

$$$$
FRASE_5JO1_6LM_fragment_1_0_THRA23LEUA29LEUA92
     RDKit          3D

 20 21  0  0  0  0  0  0  0  0999 V2000
   11.6410    6.8900   58.0850 C   0  0  2  0  0  0  0  0  0  0  0  0
   10.7350    7.0420   55.9060 C   0  0  1  0  0  0  0  0  0  0  0  0
   10.1040    6.9870   58.1100 C   0  0  0  0  0  0  0  0  0  0  0  0
   15.9160    7.1400   55.4440 C   0  0  0  0  0  0  0  0  0  0  0  0
   15.4660    8.4450   56.0040 C   0  0  1  0  0  0  0  0  0  0  0  0
   16.1290    9.5870   55.6250 C   0  0  0  0  0  0  0  0  0  0  0  0
   15.8180   10.9200   56.2210 C   0  0  0  0  0  0  0  0  0  0  0  0
   16.6940   11.5330   56.8830 O   0  0  0  0  0  0  0  0  0  0  0  0
   14.6820   11.4440   56.0550 O   0  0  0  0  0  0  0  0  0  0  0  0
   14.0770    8.5300   56.5790 C   0  0  0  0  0  0  0  0  0  0  0  0
   13.1420    7.5510   56.2900 C   0  0  0  0  0  0  0  0  0  0  0  0
   11.7390    7.5480   56.8820 C   0  0  2  0  0  0  0  0  0  0  0  0
   11.8900    5.4290   58.0030 C   0  0  0  0  0  0  0  0  0  0  0  0
   11.4020    4.7630   56.7530 C   0  0  0  0  0  0  0  0  0  0  0  0
   11.5040    3.5520   56.6330 O   0  0  0  0  0  0  0  0  0  0  0  0
   10.7940    5.5650   55.6460 C   0  0  0  0  0  0  0  0  0  0  0  0
    9.6030    7.1900   56.7070 O   0  0  0  0  0  0  0  0  0  0  0  0
   10.6180    7.7860   54.6320 C   0  0  0  0  0  0  0  0  0  0  0  0
   12.2240    7.5240   59.3120 C   0  0  0  0  0  0  0  0  0  0  0  0
   11.3480    8.8740   57.1700 O   0  0  0  0  0  0  0  0  0  0  0  0
  1  3  1  0
  1 12  1  0
  1 13  1  0
  1 19  1  1
  2 12  1  0
  2 16  1  0
  2 17  1  0
  2 18  1  6
  3 17  1  0
  5  4  1  6
  5  6  1  0
  5 10  1  0
  6  7  1  0
  7  8  2  0
  7  9  1  0
 10 11  2  3
 11 12  1  0
 12 20  1  1
 13 14  1  0
 14 15  2  0
 14 16  1  0
M  END
>  <PDBID_FRAGID>  (1) 
FRASE_5JO1_6LM_fragment_1

>  <triplet_in_target>  (1) 
THRA23LEUA29LEUA92

$$$$
FRASE_8IHS_97U_fragment_1_0_ILEA156ILEA162THRA167
     RDKit          3D

 14 14  0  0  0  0  0  0  0  0999 V2000
   28.1690   11.4080   90.4780 C   0  0  0  0  0  0  0  0  0  0  0  0
   29.0320   11.9810   89.5540 C   0  0  0  0  0  0  0  0  0  0  0  0
   28.8550   13.3020   89.1630 C   0  0  0  0  0  0  0  0  0  0  0  0
   27.8130   14.0520   89.6960 C   0  0  0  0  0  0  0  0  0  0  0  0
   26.9480   13.4800   90.6190 C   0  0  0  0  0  0  0  0  0  0  0  0
   27.1280   12.1580   91.0090 C   0  0  0  0  0  0  0  0  0  0  0  0
   26.2660   11.5890   91.9300 C   0  0  0  0  0  0  0  0  0  0  0  0
   27.0240   10.5880   92.7950 C   0  0  1  0  0  0  0  0  0  0  0  0
   27.6410   11.3080   93.9830 C   0  0  0  0  0  0  0  0  0  0  0  0
   26.8600   11.8720   94.7730 O   0  0  0  0  0  0  0  0  0  0  0  0
   28.8780   11.2700   94.0810 O   0  0  0  0  0  0  0  0  0  0  0  0
   26.0880    9.5860   93.3000 N   0  0  0  0  0  0  0  0  0  0  0  0
   26.4540    8.3250   93.5540 C   0  0  0  0  0  0  0  0  0  0  0  0
   27.5970    7.8940   93.3890 O   0  0  0  0  0  0  0  0  0  0  0  0
  1  2  2  0
  1  6  1  0
  2  3  1  0
  3  4  2  0
  4  5  1  0
  5  6  2  0
  6  7  1  0
  8  7  1  6
  8  9  1  0
  8 12  1  0
  9 10  2  0
  9 11  1  0
 12 13  1  0
 13 14  2  0
M  END
>  <PDBID_FRAGID>  (1) 
FRASE_8IHS_97U_fragment_1

>  <triplet_in_target>  (1) 
ILEA156ILEA162THRA167

$$$$
FRASE_5XGJ_84X_fragment_4_0_LYSA70VALA76LEUA94
     RDKit          3D

  8  8  0  0  0  0  0  0  0  0999 V2000
   14.5910    6.7320   72.9230 N   0  0  0  0  0  0  0  0  0  0  0  0
   15.8770    5.9300   73.0480 C   0  0  0  0  0  0  0  0  0  0  0  0
   16.3360    5.2800   71.7060 C   0  0  0  0  0  0  0  0  0  0  0  0
   15.4410    4.6140   70.8930 C   0  0  0  0  0  0  0  0  0  0  0  0
   15.8800    4.0480   69.6860 C   0  0  0  0  0  0  0  0  0  0  0  0
   17.2470    4.1600   69.3040 C   0  0  0  0  0  0  0  0  0  0  0  0
   18.1560    4.8340   70.1260 C   0  0  0  0  0  0  0  0  0  0  0  0
   17.7270    5.3940   71.3140 C   0  0  0  0  0  0  0  0  0  0  0  0
  1  2  1  0
  2  3  1  0
  3  4  2  0
  3  8  1  0
  4  5  1  0
  5  6  2  0
  6  7  1  0
  7  8  2  0
M  END
>  <PDBID_FRAGID>  (1) 
FRASE_5XGJ_84X_fragment_4

>  <triplet_in_target>  (1) 
LYSA70VALA76LEUA94

$$$$
FRASE_1MUD_ADE_fragment_1_0_LEUA59ILEA73ASPA84
     RDKit          3D

 10 11  0  0  0  0  0  0  0  0999 V2000
    9.6000   -3.0720   77.1120 N   0  0  0  0  0  0  0  0  0  0  0  0
   10.4400   -3.9770   77.7070 C   0  0  0  0  0  0  0  0  0  0  0  0
   10.6620   -5.0530   76.9790 N   0  0  0  0  0  0  0  0  0  0  0  0
    9.9660   -4.8030   75.7990 C   0  0  0  0  0  0  0  0  0  0  0  0
    9.8090   -5.5510   74.6240 C   0  0  0  0  0  0  0  0  0  0  0  0
   10.3800   -6.7400   74.4050 N   0  0  0  0  0  0  0  0  0  0  0  0
    9.0340   -5.0220   73.6400 N   0  0  0  0  0  0  0  0  0  0  0  0
    8.4500   -3.8400   73.8550 C   0  0  0  0  0  0  0  0  0  0  0  0
    8.5300   -3.0390   74.9250 N   0  0  0  0  0  0  0  0  0  0  0  0
    9.3030   -3.5860   75.8730 C   0  0  0  0  0  0  0  0  0  0  0  0
  1  2  1  0
  1 10  1  0
  2  3  2  0
  3  4  1  0
  4  5  1  0
  4 10  2  0
  5  6  1  0
  5  7  2  0
  7  8  1  0
  8  9  2  0
  9 10  1  0
M  END
>  <PDBID_FRAGID>  (1) 
FRASE_1MUD_ADE_fragment_1

>  <triplet_in_target>  (1) 
LEUA59ILEA73ASPA84

$$$$
FRASE_5UFM_AZ8_fragment_1_0_LYSA70VALA76PHEA115
     RDKit          3D

 12 13  0  0  0  0  0  0  0  0999 V2000
    9.6030   -4.4630   75.8880 C   0  0  0  0  0  0  0  0  0  0  0  0
    8.4580   -4.1920   76.5100 N   0  0  0  0  0  0  0  0  0  0  0  0
    8.4070   -3.2360   77.3920 N   0  0  0  0  0  0  0  0  0  0  0  0
    9.4620   -2.4970   77.7090 C   0  0  0  0  0  0  0  0  0  0  0  0
   10.6370   -2.7150   77.1320 N   0  0  0  0  0  0  0  0  0  0  0  0
   10.7270   -3.6890   76.2250 C   0  0  0  0  0  0  0  0  0  0  0  0
   11.9950   -3.9900   75.5370 C   0  0  0  0  0  0  0  0  0  0  0  0
   12.9900   -3.3430   75.7960 O   0  0  0  0  0  0  0  0  0  0  0  0
   12.0120   -4.9830   74.6210 N   0  0  0  0  0  0  0  0  0  0  0  0
   10.9150   -5.6960   74.3360 C   0  0  0  0  0  0  0  0  0  0  0  0
   11.0040   -6.5840   73.5000 O   0  0  0  0  0  0  0  0  0  0  0  0
    9.7330   -5.4610   74.9350 N   0  0  0  0  0  0  0  0  0  0  0  0
  1  2  2  0
  1  6  1  0
  1 12  1  0
  2  3  1  0
  3  4  2  0
  4  5  1  0
  5  6  2  0
  6  7  1  0
  7  8  2  0
  7  9  1  0
  9 10  1  0
 10 11  2  0
 10 12  1  0
M  END
>  <PDBID_FRAGID>  (1) 
FRASE_5UFM_AZ8_fragment_1

>  <triplet_in_target>  (1) 
LYSA70VALA76PHEA115

$$$$
FRASE_5DXT_5H5_fragment_2_0_LEUA59ILEA73ASPA84
     RDKit          3D

  6  6  0  0  0  0  0  0  0  0999 V2000
    9.6140   -4.6480   73.9610 C   0  0  0  0  0  0  0  0  0  0  0  0
    9.2810   -3.1890   77.2310 C   0  0  0  0  0  0  0  0  0  0  0  0
    8.5440   -2.9490   74.7800 C   0  0  0  0  0  0  0  0  0  0  0  0
    8.8050   -3.6350   73.6880 N   0  0  0  0  0  0  0  0  0  0  0  0
    9.8930   -4.6350   75.2340 N   0  0  0  0  0  0  0  0  0  0  0  0
    9.2210   -3.5410   75.8030 N   0  0  0  0  0  0  0  0  0  0  0  0
  1  4  1  0
  1  5  2  0
  2  6  1  0
  3  4  2  0
  3  6  1  0
  5  6  1  0
M  END
>  <PDBID_FRAGID>  (1) 
FRASE_5DXT_5H5_fragment_2

>  <triplet_in_target>  (1) 
LEUA59ILEA73ASPA84

$$$$
FRASE_5IRQ_6D7_fragment_2_0_LEUA157ILEA162PHEA173
     RDKit          3D

  9 10  0  0  0  0  0  0  0  0999 V2000
   27.4740   15.3250   80.9200 C   0  0  1  0  0  0  0  0  0  0  0  0
   26.2370   15.3610   81.6640 C   0  0  0  0  0  0  0  0  0  0  0  0
   25.5800   16.6600   81.2970 C   0  0  0  0  0  0  0  0  0  0  0  0
   26.9180   18.8630   80.4850 C   0  0  0  0  0  0  0  0  0  0  0  0
   28.7520   17.6600   80.1020 C   0  0  0  0  0  0  0  0  0  0  0  0
   27.7300   16.7900   80.5570 C   0  0  0  0  0  0  0  0  0  0  0  0
   28.5870   14.5540   81.4380 O   0  0  0  0  0  0  0  0  0  0  0  0
   26.6220   17.5410   80.8020 N   0  0  0  0  0  0  0  0  0  0  0  0
   28.2420   18.9180   80.0540 N   0  0  0  0  0  0  0  0  0  0  0  0
  1  2  1  0
  1  6  1  0
  1  7  1  1
  2  3  1  0
  3  8  1  0
  4  8  1  0
  4  9  2  0
  5  6  2  0
  5  9  1  0
  6  8  1  0
M  END
>  <PDBID_FRAGID>  (1) 
FRASE_5IRQ_6D7_fragment_2

>  <triplet_in_target>  (1) 
LEUA157ILEA162PHEA173

$$$$
FRASE_3M2J_F5M_fragment_3_0_PHEA34GLNA42VALA45
     RDKit          3D

  7  7  0  0  0  0  0  0  0  0999 V2000
   -1.8610   -3.5420   50.3530 N   0  0  0  0  0  0  0  0  0  0  0  0
   -2.9760   -3.2070   50.9530 C   0  0  0  0  0  0  0  0  0  0  0  0
   -2.8490   -3.1650   52.4640 C   0  0  0  0  0  0  0  0  0  0  0  0
   -1.3390   -3.1150   52.6590 C   0  0  0  0  0  0  0  0  0  0  0  0
   -0.8890   -3.4620   51.2490 C   0  0  0  0  0  0  0  0  0  0  0  0
    0.2740   -3.7170   50.9780 O   0  0  0  0  0  0  0  0  0  0  0  0
   -3.9770   -2.7440   50.3360 O   0  0  0  0  0  0  0  0  0  0  0  0
  1  2  1  0
  1  5  1  0
  2  3  1  0
  2  7  2  0
  3  4  2  0
  4  5  1  0
  5  6  2  0
M  END
>  <PDBID_FRAGID>  (1) 
FRASE_3M2J_F5M_fragment_3

>  <triplet_in_target>  (1) 
PHEA34GLNA42VALA45

$$$$
FRASE_3B28_B2X_fragment_2_0_ASPA161LEUA170VALA176
     RDKit          3D

  9  9  0  0  0  0  0  0  0  0999 V2000
   21.4160   22.1500   85.5090 C   0  0  0  0  0  0  0  0  0  0  0  0
   20.3550   22.9700   85.4000 N   0  0  0  0  0  0  0  0  0  0  0  0
   21.2620   20.8500   85.1820 N   0  0  0  0  0  0  0  0  0  0  0  0
   20.0810   20.3790   84.7330 C   0  0  0  0  0  0  0  0  0  0  0  0
   19.9890   19.1030   84.3980 N   0  0  0  0  0  0  0  0  0  0  0  0
   19.0340   21.2030   84.6020 N   0  0  0  0  0  0  0  0  0  0  0  0
   19.1820   22.4460   84.9920 C   0  0  0  0  0  0  0  0  0  0  0  0
   17.8140   23.4840   84.7920 S   0  0  0  0  0  0  0  0  0  0  0  0
   18.2420   24.9280   85.7600 C   0  0  0  0  0  0  0  0  0  0  0  0
  1  2  2  0
  1  3  1  0
  2  7  1  0
  3  4  2  0
  4  5  1  0
  4  6  1  0
  6  7  2  0
  7  8  1  0
  8  9  1  0
M  END
>  <PDBID_FRAGID>  (1) 
FRASE_3B28_B2X_fragment_2

>  <triplet_in_target>  (1) 
ASPA161LEUA170VALA176

$$$$
FRASE_5G6P_8VJ_fragment_2_0_HISA31ALAA51PHEA91
     RDKit          3D

 13 14  0  0  0  0  0  0  0  0999 V2000
   -3.0860    6.7670   59.7890 O   0  0  0  0  0  0  0  0  0  0  0  0
   -4.3010    6.4690   60.4680 C   0  0  0  0  0  0  0  0  0  0  0  0
   -4.4670    4.5390   63.6970 C   0  0  0  0  0  0  0  0  0  0  0  0
   -4.8090    5.0760   62.4670 C   0  0  0  0  0  0  0  0  0  0  0  0
   -3.9100    5.8970   61.8070 C   0  0  0  0  0  0  0  0  0  0  0  0
   -2.6650    6.1660   62.3810 C   0  0  0  0  0  0  0  0  0  0  0  0
   -2.3180    5.6310   63.6250 C   0  0  0  0  0  0  0  0  0  0  0  0
   -3.2320    4.8100   64.2860 C   0  0  0  0  0  0  0  0  0  0  0  0
   -2.9340    4.2400   65.5280 C   0  0  0  0  0  0  0  0  0  0  0  0
   -3.8860    3.4200   66.1400 C   0  0  0  0  0  0  0  0  0  0  0  0
   -5.1150    3.1900   65.5050 C   0  0  0  0  0  0  0  0  0  0  0  0
   -6.0790    2.3950   66.0570 N   0  0  0  0  0  0  0  0  0  0  0  0
   -5.3710    3.7510   64.3100 N   0  0  0  0  0  0  0  0  0  0  0  0
  1  2  1  0
  2  5  1  0
  3  4  2  0
  3  8  1  0
  3 13  1  0
  4  5  1  0
  5  6  2  0
  6  7  1  0
  7  8  2  0
  8  9  1  0
  9 10  2  0
 10 11  1  0
 11 12  1  0
 11 13  2  0
M  END
>  <PDBID_FRAGID>  (1) 
FRASE_5G6P_8VJ_fragment_2

>  <triplet_in_target>  (1) 
HISA31ALAA51PHEA91

$$$$
FRASE_5DH5_5AY_fragment_4_0_LEUA29PHEA88LEUA95
     RDKit          3D

  8  8  0  0  0  0  0  0  0  0999 V2000
    6.1500   -1.7290   58.0430 C   0  0  0  0  0  0  0  0  0  0  0  0
    7.0610   -3.5440   57.0280 N   0  0  0  0  0  0  0  0  0  0  0  0
    5.1760   -0.0560   59.5870 N   0  0  0  0  0  0  0  0  0  0  0  0
    5.5940   -0.3760   58.2330 C   0  0  0  0  0  0  0  0  0  0  0  0
    6.3130   -2.7190   58.9910 C   0  0  0  0  0  0  0  0  0  0  0  0
    6.8660   -3.7740   58.3290 N   0  0  0  0  0  0  0  0  0  0  0  0
    6.6280   -2.2920   56.8350 C   0  0  0  0  0  0  0  0  0  0  0  0
    7.2390   -5.0520   58.9080 C   0  0  0  0  0  0  0  0  0  0  0  0
  1  4  1  0
  1  5  2  0
  1  7  1  0
  2  6  1  0
  2  7  2  0
  3  4  1  0
  5  6  1  0
  6  8  1  0
M  END
>  <PDBID_FRAGID>  (1) 
FRASE_5DH5_5AY_fragment_4

>  <triplet_in_target>  (1) 
LEUA29PHEA88LEUA95

$$$$
FRASE_4MUE_2DH_fragment_2_0_PHEA69ASPA116LEUA131
     RDKit          3D

 16 16  0  0  0  0  0  0  0  0999 V2000
   10.3950   -0.8390   77.0410 C   0  0  0  0  0  0  0  0  0  0  0  0
   10.4850   -0.4610   78.2160 O   0  0  0  0  0  0  0  0  0  0  0  0
   10.4540   -2.1470   76.7210 N   0  0  0  0  0  0  0  0  0  0  0  0
   10.4600   -3.2150   77.8910 S   0  0  1  0  0  0  0  0  0  0  0  0
   10.1710   -2.8810   79.2650 O   0  0  0  0  0  0  0  0  0  0  0  0
   10.0770   -4.6150   77.4960 O   0  0  0  0  0  0  0  0  0  0  0  0
   12.1930   -3.2640   78.3210 C   0  0  0  0  0  0  0  0  0  0  0  0
   13.2030   -3.5650   77.4130 C   0  0  0  0  0  0  0  0  0  0  0  0
   14.5260   -3.6600   77.8990 C   0  0  0  0  0  0  0  0  0  0  0  0
   14.8900   -3.4520   79.2530 C   0  0  0  0  0  0  0  0  0  0  0  0
   16.2560   -3.6420   79.6550 C   0  0  1  0  0  0  0  0  0  0  0  0
   16.3900   -4.0790   80.9200 F   0  0  0  0  0  0  0  0  0  0  0  0
   16.7100   -4.7520   78.8840 F   0  0  0  0  0  0  0  0  0  0  0  0
   17.0700   -2.6480   79.4710 F   0  0  0  0  0  0  0  0  0  0  0  0
   13.8640   -3.1410   80.1410 C   0  0  0  0  0  0  0  0  0  0  0  0
   12.5340   -3.0550   79.6620 C   0  0  0  0  0  0  0  0  0  0  0  0
  1  2  2  0
  1  3  1  0
  4  3  1  6
  4  5  2  0
  4  6  2  0
  4  7  1  0
  7  8  2  0
  7 16  1  0
  8  9  1  0
  9 10  2  0
 10 11  1  0
 10 15  1  0
 11 12  1  1
 11 13  1  0
 11 14  1  0
 15 16  2  0
M  END
>  <PDBID_FRAGID>  (1) 
FRASE_4MUE_2DH_fragment_2

>  <triplet_in_target>  (1) 
PHEA69ASPA116LEUA131

$$$$
FRASE_8GYJ_IMD_fragment_1_0_PHEA115ARGA130LEUA135
     RDKit          3D

  5  5  0  0  0  0  0  0  0  0999 V2000
   15.5620   -3.2620   77.6250 N   0  0  0  0  0  0  0  0  0  0  0  0
   16.7450   -3.3490   77.0170 C   0  0  0  0  0  0  0  0  0  0  0  0
   17.1870   -2.1210   76.8410 N   0  0  0  0  0  0  0  0  0  0  0  0
   16.1460   -1.2560   77.0220 C   0  0  0  0  0  0  0  0  0  0  0  0
   15.1220   -1.9710   77.5140 C   0  0  0  0  0  0  0  0  0  0  0  0
  1  2  1  0
  1  5  1  0
  2  3  2  0
  3  4  1  0
  4  5  2  0
M  END
>  <PDBID_FRAGID>  (1) 
FRASE_8GYJ_IMD_fragment_1

>  <triplet_in_target>  (1) 
PHEA115ARGA130LEUA135

$$$$
FRASE_7JWV_VMJ_fragment_1_0_LEUA59GLUA63PHEA91
     RDKit          3D

  8  8  0  0  0  0  0  0  0  0999 V2000
   14.7670    3.8890   66.2100 C   0  0  0  0  0  0  0  0  0  0  0  0
   13.6300    3.5600   65.4810 C   0  0  0  0  0  0  0  0  0  0  0  0
   12.7820    2.5560   65.8910 C   0  0  0  0  0  0  0  0  0  0  0  0
   13.0520    1.8510   67.0560 C   0  0  0  0  0  0  0  0  0  0  0  0
   12.0680    0.7610   67.4170 C   0  0  0  0  0  0  0  0  0  0  0  0
   12.7120   -0.3880   67.9750 O   0  0  0  0  0  0  0  0  0  0  0  0
   14.1970    2.1790   67.8080 C   0  0  0  0  0  0  0  0  0  0  0  0
   15.0550    3.2030   67.3850 C   0  0  0  0  0  0  0  0  0  0  0  0
  1  2  2  0
  1  8  1  0
  2  3  1  0
  3  4  2  0
  4  5  1  0
  4  7  1  0
  5  6  1  0
  7  8  2  0
M  END
>  <PDBID_FRAGID>  (1) 
FRASE_7JWV_VMJ_fragment_1

>  <triplet_in_target>  (1) 
LEUA59GLUA63PHEA91

$$$$
FRASE_5FNJ_YI6_fragment_1_0_LEUA29PHEA34LEUA95
     RDKit          3D

 13 13  0  0  0  0  0  0  0  0999 V2000
    2.0490    8.3350   58.1890 C   0  0  0  0  0  0  0  0  0  0  0  0
    1.7250    9.4230   58.9560 C   0  0  0  0  0  0  0  0  0  0  0  0
    0.5610   10.1010   58.7230 C   0  0  0  0  0  0  0  0  0  0  0  0
   -0.2500    9.7010   57.6660 C   0  0  0  0  0  0  0  0  0  0  0  0
    0.0820    8.5910   56.8640 C   0  0  0  0  0  0  0  0  0  0  0  0
    1.2450    7.9270   57.1450 C   0  0  0  0  0  0  0  0  0  0  0  0
    0.4900   12.6390   58.8380 C   0  0  0  0  0  0  0  0  0  0  0  0
    1.6490    6.7670   56.3980 O   0  0  0  0  0  0  0  0  0  0  0  0
    0.6570    6.1030   55.6390 C   0  0  0  0  0  0  0  0  0  0  0  0
    1.2610    4.7940   55.1500 C   0  0  0  0  0  0  0  0  0  0  0  0
   -0.5060   13.2480   58.2920 O   0  0  0  0  0  0  0  0  0  0  0  0
    1.7000   12.9820   58.8570 O   0  0  0  0  0  0  0  0  0  0  0  0
    0.1430   11.3120   59.5820 C   0  0  0  0  0  0  0  0  0  0  0  0
  1  2  2  0
  1  6  1  0
  2  3  1  0
  3  4  2  0
  3 13  1  0
  4  5  1  0
  5  6  2  0
  6  8  1  0
  7 11  2  0
  7 12  1  0
  7 13  1  0
  8  9  1  0
  9 10  1  0
M  END
>  <PDBID_FRAGID>  (1) 
FRASE_5FNJ_YI6_fragment_1

>  <triplet_in_target>  (1) 
LEUA29PHEA34LEUA95

$$$$
FRASE_4MQ6_29W_fragment_2_0_PHEA69ASPA116LEUA131
     RDKit          3D

 13 13  0  0  0  0  0  0  0  0999 V2000
   10.2570   -0.8070   77.1270 C   0  0  0  0  0  0  0  0  0  0  0  0
   10.1440   -0.5710   78.3290 O   0  0  0  0  0  0  0  0  0  0  0  0
   10.5340   -2.0100   76.7670 N   0  0  0  0  0  0  0  0  0  0  0  0
   10.8580   -3.1950   77.8900 S   0  0  2  0  0  0  0  0  0  0  0  0
   10.4360   -4.4440   77.4090 O   0  0  0  0  0  0  0  0  0  0  0  0
   10.0160   -3.2600   79.1690 O   0  0  0  0  0  0  0  0  0  0  0  0
   12.3590   -3.1390   78.2600 C   0  0  0  0  0  0  0  0  0  0  0  0
   13.2510   -3.3660   77.2640 C   0  0  0  0  0  0  0  0  0  0  0  0
   14.6470   -3.3860   77.6120 C   0  0  0  0  0  0  0  0  0  0  0  0
   15.0680   -3.2280   78.9510 C   0  0  0  0  0  0  0  0  0  0  0  0
   16.4300   -3.2280   79.2890 C   0  0  0  0  0  0  0  0  0  0  0  0
   14.0850   -2.9730   79.9480 C   0  0  0  0  0  0  0  0  0  0  0  0
   12.7190   -2.9670   79.6150 C   0  0  0  0  0  0  0  0  0  0  0  0
  1  2  2  0
  1  3  1  0
  4  3  1  6
  4  5  2  0
  4  6  2  0
  4  7  1  0
  7  8  2  0
  7 13  1  0
  8  9  1  0
  9 10  2  0
 10 11  1  0
 10 12  1  0
 12 13  2  0
M  END
>  <PDBID_FRAGID>  (1) 
FRASE_4MQ6_29W_fragment_2

>  <triplet_in_target>  (1) 
PHEA69ASPA116LEUA131

$$$$
FRASE_6KCL_O3A_fragment_2_0_ILEA27ARGA32PHEA88
     RDKit          3D

 10 10  0  0  0  0  0  0  0  0999 V2000
    6.8660    2.2540   57.3390 C   0  0  0  0  0  0  0  0  0  0  0  0
    6.2740    1.1820   57.1760 O   0  0  0  0  0  0  0  0  0  0  0  0
    6.6540    2.9690   58.3290 O   0  0  0  0  0  0  0  0  0  0  0  0
    7.8730    2.6910   56.3420 C   0  0  0  0  0  0  0  0  0  0  0  0
    8.1510    1.8500   55.2720 C   0  0  0  0  0  0  0  0  0  0  0  0
    9.0830    2.2180   54.3260 C   0  0  0  0  0  0  0  0  0  0  0  0
    9.7310    3.4350   54.4800 C   0  0  0  0  0  0  0  0  0  0  0  0
    9.4570    4.2930   55.5490 C   0  0  0  0  0  0  0  0  0  0  0  0
    8.5150    3.9130   56.5010 C   0  0  0  0  0  0  0  0  0  0  0  0
   10.6440    3.7840   53.5500 O   0  0  0  0  0  0  0  0  0  0  0  0
  1  2  2  0
  1  3  1  0
  1  4  1  0
  4  5  2  0
  4  9  1  0
  5  6  1  0
  6  7  2  0
  7  8  1  0
  7 10  1  0
  8  9  2  0
M  END
>  <PDBID_FRAGID>  (1) 
FRASE_6KCL_O3A_fragment_2

>  <triplet_in_target>  (1) 
ILEA27ARGA32PHEA88

$$$$
FRASE_3LYG_IMD_fragment_1_0_TYRA110PHEA115LEUA170
     RDKit          3D

  5  5  0  0  0  0  0  0  0  0999 V2000
    9.8380   10.0390   78.8120 N   0  0  0  0  0  0  0  0  0  0  0  0
   10.0170    9.3230   79.9370 C   0  0  0  0  0  0  0  0  0  0  0  0
    9.0570    9.6060   80.8270 N   0  0  0  0  0  0  0  0  0  0  0  0
    8.2480   10.5430   80.2590 C   0  0  0  0  0  0  0  0  0  0  0  0
    8.7550   10.8310   79.0240 C   0  0  0  0  0  0  0  0  0  0  0  0
  1  2  1  0
  1  5  1  0
  2  3  2  0
  3  4  1  0
  4  5  2  0
M  END
>  <PDBID_FRAGID>  (1) 
FRASE_3LYG_IMD_fragment_1

>  <triplet_in_target>  (1) 
TYRA110PHEA115LEUA170

$$$$
FRASE_4Y50_47S_fragment_1_0_VALA76PHEA115ASPA119
     RDKit          3D

 11 11  0  0  0  0  0  0  0  0999 V2000
   11.1500    8.8870   80.1840 C   0  0  0  0  0  0  0  0  0  0  0  0
   12.2130    9.2420   79.3760 C   0  0  0  0  0  0  0  0  0  0  0  0
   12.2900   10.5210   78.8480 C   0  0  0  0  0  0  0  0  0  0  0  0
   11.2940   11.4480   79.1420 C   0  0  0  0  0  0  0  0  0  0  0  0
   13.4240   10.9300   77.9660 C   0  0  0  0  0  0  0  0  0  0  0  0
   13.4330   12.0190   77.3990 O   0  0  0  0  0  0  0  0  0  0  0  0
   10.1530    9.8020   80.4740 C   0  0  0  0  0  0  0  0  0  0  0  0
   10.2140   11.0980   79.9560 C   0  0  0  0  0  0  0  0  0  0  0  0
    9.2330   12.0090   80.2390 N   0  0  0  0  0  0  0  0  0  0  0  0
    9.0970   13.2220   79.4550 C   0  0  0  0  0  0  0  0  0  0  0  0
    8.1110   11.6500   81.0890 C   0  0  0  0  0  0  0  0  0  0  0  0
  1  2  2  0
  1  7  1  0
  2  3  1  0
  3  4  2  0
  3  5  1  0
  4  8  1  0
  5  6  2  0
  7  8  2  0
  8  9  1  0
  9 10  1  0
  9 11  1  0
M  END
>  <PDBID_FRAGID>  (1) 
FRASE_4Y50_47S_fragment_1

>  <triplet_in_target>  (1) 
VALA76PHEA115ASPA119

$$$$
FRASE_1WEI_ADE_fragment_1_0_LEUA59ILEA73ASPA84
     RDKit          3D

 10 11  0  0  0  0  0  0  0  0999 V2000
    9.7290   -2.4230   76.7060 N   0  0  0  0  0  0  0  0  0  0  0  0
   10.1470   -3.4410   77.4790 C   0  0  0  0  0  0  0  0  0  0  0  0
   10.0270   -4.6460   76.9030 N   0  0  0  0  0  0  0  0  0  0  0  0
    9.4910   -4.3600   75.6750 C   0  0  0  0  0  0  0  0  0  0  0  0
    9.1090   -5.1630   74.5650 C   0  0  0  0  0  0  0  0  0  0  0  0
    9.2450   -6.4860   74.5810 N   0  0  0  0  0  0  0  0  0  0  0  0
    8.5880   -4.5140   73.4560 N   0  0  0  0  0  0  0  0  0  0  0  0
    8.4570   -3.1640   73.4570 C   0  0  0  0  0  0  0  0  0  0  0  0
    8.7890   -2.3100   74.4600 N   0  0  0  0  0  0  0  0  0  0  0  0
    9.3020   -2.9890   75.5380 C   0  0  0  0  0  0  0  0  0  0  0  0
  1  2  1  0
  1 10  1  0
  2  3  2  0
  3  4  1  0
  4  5  1  0
  4 10  2  0
  5  6  1  0
  5  7  2  0
  7  8  1  0
  8  9  2  0
  9 10  1  0
M  END
>  <PDBID_FRAGID>  (1) 
FRASE_1WEI_ADE_fragment_1

>  <triplet_in_target>  (1) 
LEUA59ILEA73ASPA84

$$$$
FRASE_5BVW_1N1_fragment_1_0_LEUA28PHEA34VALA45
     RDKit          3D

  7  7  0  0  0  0  0  0  0  0999 V2000
    1.6620   -1.8070   50.1140 C   0  0  0  0  0  0  0  0  0  0  0  0
    0.3460   -2.0680   50.2670 C   0  0  0  0  0  0  0  0  0  0  0  0
   -0.8490   -1.2620   49.9490 C   0  0  0  0  0  0  0  0  0  0  0  0
    2.4060   -4.9390   51.4920 N   0  0  0  0  0  0  0  0  0  0  0  0
    1.8140   -3.8140   51.0120 C   0  0  0  0  0  0  0  0  0  0  0  0
    2.4990   -2.8110   50.5390 N   0  0  0  0  0  0  0  0  0  0  0  0
    0.0950   -3.6070   50.9760 S   0  0  0  0  0  0  0  0  0  0  0  0
  1  2  2  0
  1  6  1  0
  2  3  1  0
  2  7  1  0
  4  5  1  0
  5  6  2  0
  5  7  1  0
M  END
>  <PDBID_FRAGID>  (1) 
FRASE_5BVW_1N1_fragment_1

>  <triplet_in_target>  (1) 
LEUA28PHEA34VALA45

$$$$
FRASE_5AXD_RBV_fragment_1_0_SERA108HISA175SERA180
     RDKit          3D

  9  9  0  0  0  0  0  0  0  0999 V2000
   21.8980   21.4590   72.5510 C   0  0  0  0  0  0  0  0  0  0  0  0
   21.5670   19.9820   72.2450 C   0  0  2  0  0  0  0  0  0  0  0  0
   22.7470   19.2270   71.9160 O   0  0  0  0  0  0  0  0  0  0  0  0
   20.5820   20.0410   71.0920 C   0  0  2  0  0  0  0  0  0  0  0  0
   20.9740   19.1950   69.9990 O   0  0  0  0  0  0  0  0  0  0  0  0
   20.5890   21.5030   70.6870 C   0  0  2  0  0  0  0  0  0  0  0  0
   20.9030   22.2100   71.8790 O   0  0  0  0  0  0  0  0  0  0  0  0
   19.2830   22.0580   70.1170 C   0  0  0  0  0  0  0  0  0  0  0  0
   19.5970   23.3200   69.4960 O   0  0  0  0  0  0  0  0  0  0  0  0
  1  2  1  0
  1  7  1  0
  2  3  1  6
  2  4  1  0
  4  5  1  6
  4  6  1  0
  6  7  1  0
  6  8  1  1
  8  9  1  0
M  END
>  <PDBID_FRAGID>  (1) 
FRASE_5AXD_RBV_fragment_1

>  <triplet_in_target>  (1) 
SERA108HISA175SERA180

$$$$
FRASE_2GG3_U13_fragment_2_0_ASPA105PHEA112HISA175
     RDKit          3D

  9  9  0  0  0  0  0  0  0  0999 V2000
   24.5720   14.2360   71.2800 N   0  0  0  0  0  0  0  0  0  0  0  0
   23.6360   13.6740   71.8570 N   0  0  0  0  0  0  0  0  0  0  0  0
   22.3220   13.8770   71.5120 C   0  0  0  0  0  0  0  0  0  0  0  0
   21.6980   14.7330   70.4930 C   0  0  0  0  0  0  0  0  0  0  0  0
   22.3240   15.5470   69.5780 N   0  0  0  0  0  0  0  0  0  0  0  0
   20.3450   14.6180   70.5420 N   0  0  0  0  0  0  0  0  0  0  0  0
   19.9950   13.7100   71.5580 N   0  0  0  0  0  0  0  0  0  0  0  0
   21.1450   13.2780   72.1400 C   0  0  0  0  0  0  0  0  0  0  0  0
   21.2070   12.3860   73.1610 N   0  0  0  0  0  0  0  0  0  0  0  0
  1  2  2  0
  2  3  1  0
  3  4  1  0
  3  8  2  0
  4  5  2  0
  4  6  1  0
  6  7  2  0
  7  8  1  0
  8  9  1  0
M  END
>  <PDBID_FRAGID>  (1) 
FRASE_2GG3_U13_fragment_2

>  <triplet_in_target>  (1) 
ASPA105PHEA112HISA175

$$$$
FRASE_3BWL_I3A_fragment_1_0_PHEA112SERA171VALA176
     RDKit          3D

 11 12  0  0  0  0  0  0  0  0999 V2000
   18.7770   21.0080   75.8560 O   0  0  0  0  0  0  0  0  0  0  0  0
   19.3810   20.1440   75.2290 C   0  0  0  0  0  0  0  0  0  0  0  0
   18.6190   19.1180   74.4360 C   0  0  0  0  0  0  0  0  0  0  0  0
   19.3170   18.1700   73.6400 C   0  0  0  0  0  0  0  0  0  0  0  0
   18.2930   17.4530   73.0670 N   0  0  0  0  0  0  0  0  0  0  0  0
   17.0650   17.9160   73.4390 C   0  0  0  0  0  0  0  0  0  0  0  0
   17.2210   19.0000   74.2970 C   0  0  0  0  0  0  0  0  0  0  0  0
   16.0970   19.6520   74.8470 C   0  0  0  0  0  0  0  0  0  0  0  0
   14.7970   19.2190   74.4760 C   0  0  0  0  0  0  0  0  0  0  0  0
   14.6370   18.1490   73.5800 C   0  0  0  0  0  0  0  0  0  0  0  0
   15.7760   17.4930   73.0730 C   0  0  0  0  0  0  0  0  0  0  0  0
  1  2  2  0
  2  3  1  0
  3  4  2  0
  3  7  1  0
  4  5  1  0
  5  6  1  0
  6  7  2  0
  6 11  1  0
  7  8  1  0
  8  9  2  0
  9 10  1  0
 10 11  2  0
M  END
>  <PDBID_FRAGID>  (1) 
FRASE_3BWL_I3A_fragment_1

>  <triplet_in_target>  (1) 
PHEA112SERA171VALA176

$$$$
FRASE_7XJ0_EQK_fragment_3_0_PHEA69VALA76PHEA117
     RDKit          3D

  7  7  0  0  0  0  0  0  0  0999 V2000
    9.7940   -3.3880   77.7240 C   0  0  0  0  0  0  0  0  0  0  0  0
    9.3960   -3.9110   76.4510 C   0  0  0  0  0  0  0  0  0  0  0  0
    8.0190   -3.9190   75.8340 C   0  0  0  0  0  0  0  0  0  0  0  0
   11.7270   -4.3570   76.6180 C   0  0  0  0  0  0  0  0  0  0  0  0
   10.6370   -4.5170   75.7670 N   0  0  0  0  0  0  0  0  0  0  0  0
   13.0520   -4.7650   76.2680 N   0  0  0  0  0  0  0  0  0  0  0  0
   11.2630   -3.6250   77.8740 S   0  0  0  0  0  0  0  0  0  0  0  0
  1  2  2  0
  1  7  1  0
  2  3  1  0
  2  5  1  0
  4  5  2  0
  4  6  1  0
  4  7  1  0
M  END
>  <PDBID_FRAGID>  (1) 
FRASE_7XJ0_EQK_fragment_3

>  <triplet_in_target>  (1) 
PHEA69VALA76PHEA117

$$$$
FRASE_5T6K_5G9_fragment_2_0_ASNA124ASPA154ARGA164
     RDKit          3D

  6  6  0  0  0  0  0  0  0  0999 V2000
   22.8670    8.4740   92.6870 N   0  0  0  0  0  0  0  0  0  0  0  0
   26.1480    8.0080   94.4530 C   0  0  0  0  0  0  0  0  0  0  0  0
   24.1250    8.3380   93.1220 C   0  0  0  0  0  0  0  0  0  0  0  0
   26.3050    8.7360   93.2970 C   0  0  0  0  0  0  0  0  0  0  0  0
   25.1560    8.9060   92.5480 N   0  0  0  0  0  0  0  0  0  0  0  0
   24.4800    7.4960   94.6090 S   0  0  0  0  0  0  0  0  0  0  0  0
  1  3  1  0
  2  4  2  0
  2  6  1  0
  3  5  2  0
  3  6  1  0
  4  5  1  0
M  END
>  <PDBID_FRAGID>  (1) 
FRASE_5T6K_5G9_fragment_2

>  <triplet_in_target>  (1) 
ASNA124ASPA154ARGA164

$$$$
FRASE_8CDQ_KQ0_fragment_2_0_PHEA115ASPA120ASNA169
     RDKit          3D

  7  7  0  0  0  0  0  0  0  0999 V2000
    9.9610    6.6890   79.6460 N   0  0  0  0  0  0  0  0  0  0  0  0
    9.7830    7.9190   80.4540 C   0  0  0  0  0  0  0  0  0  0  0  0
   12.3080    8.4170   79.7870 C   0  0  0  0  0  0  0  0  0  0  0  0
   11.0400    8.8040   80.2880 C   0  0  0  0  0  0  0  0  0  0  0  0
   11.1660   10.1940   80.5470 C   0  0  0  0  0  0  0  0  0  0  0  0
   13.0480    9.5220   79.7880 N   0  0  0  0  0  0  0  0  0  0  0  0
   12.3890   10.5890   80.2450 N   0  0  0  0  0  0  0  0  0  0  0  0
  1  2  1  0
  2  4  1  0
  3  4  2  0
  3  6  1  0
  4  5  1  0
  5  7  2  0
  6  7  1  0
M  END
>  <PDBID_FRAGID>  (1) 
FRASE_8CDQ_KQ0_fragment_2

>  <triplet_in_target>  (1) 
PHEA115ASPA120ASNA169

$$$$
FRASE_7BC9_UR4_fragment_1_0_PHEA34PROA39SERA44
     RDKit          3D

  6  6  0  0  0  0  0  0  0  0999 V2000
   -1.2150   -5.2440   51.2070 N   0  0  0  0  0  0  0  0  0  0  0  0
   -1.5780   -3.9770   51.1200 C   0  0  0  0  0  0  0  0  0  0  0  0
   -0.7230   -3.0520   51.6920 C   0  0  0  0  0  0  0  0  0  0  0  0
    0.4660   -6.8530   52.0150 N   0  0  0  0  0  0  0  0  0  0  0  0
   -0.0830   -5.5200   51.8270 C   0  0  0  0  0  0  0  0  0  0  0  0
    0.5640   -4.0000   52.3360 S   0  0  0  0  0  0  0  0  0  0  0  0
  1  2  1  0
  1  5  2  0
  2  3  2  0
  3  6  1  0
  4  5  1  0
  5  6  1  0
M  END
>  <PDBID_FRAGID>  (1) 
FRASE_7BC9_UR4_fragment_1

>  <triplet_in_target>  (1) 
PHEA34PROA39SERA44

$$$$
FRASE_5S9N_YVS_fragment_1_0_TYRA110PHEA115LEUA170
     RDKit          3D

 10 11  0  0  0  0  0  0  0  0999 V2000
   10.4110   10.4940   78.8360 C   0  0  0  0  0  0  0  0  0  0  0  0
    8.9610   10.5990   79.1650 C   0  0  1  0  0  0  0  0  0  0  0  0
    8.9150   10.6410   80.6650 C   0  0  1  0  0  0  0  0  0  0  0  0
    7.4490   10.3610   80.7050 C   0  0  0  0  0  0  0  0  0  0  0  0
    5.6690   12.0010   79.7530 C   0  0  0  0  0  0  0  0  0  0  0  0
   12.3960    9.7120   80.3800 C   0  0  0  0  0  0  0  0  0  0  0  0
   11.0420   10.0150   80.0060 N   0  0  0  0  0  0  0  0  0  0  0  0
   10.0830    9.7940   81.1250 C   0  0  0  0  0  0  0  0  0  0  0  0
    6.9920   11.4520   79.8080 N   0  0  0  0  0  0  0  0  0  0  0  0
    8.1070   11.8310   78.9410 C   0  0  0  0  0  0  0  0  0  0  0  0
  2  1  1  1
  1  7  1  0
  2  3  1  0
  2 10  1  0
  3  4  1  1
  3  8  1  0
  4  9  1  0
  5  9  1  0
  6  7  1  0
  7  8  1  0
  9 10  1  0
M  END
>  <PDBID_FRAGID>  (1) 
FRASE_5S9N_YVS_fragment_1

>  <triplet_in_target>  (1) 
TYRA110PHEA115LEUA170

$$$$
FRASE_5DF1_IMD_fragment_1_0_CYSA35VALA45ARGA50
     RDKit          3D

  5  5  0  0  0  0  0  0  0  0999 V2000
   -3.0910   -2.8460   53.9550 N   0  0  0  0  0  0  0  0  0  0  0  0
   -2.5530   -3.4530   54.9930 C   0  0  0  0  0  0  0  0  0  0  0  0
   -3.3820   -3.3570   56.0150 N   0  0  0  0  0  0  0  0  0  0  0  0
   -4.4810   -2.6700   55.6130 C   0  0  0  0  0  0  0  0  0  0  0  0
   -4.3000   -2.3490   54.3230 C   0  0  0  0  0  0  0  0  0  0  0  0
  1  2  1  0
  1  5  1  0
  2  3  2  0
  3  4  1  0
  4  5  2  0
M  END
>  <PDBID_FRAGID>  (1) 
FRASE_5DF1_IMD_fragment_1

>  <triplet_in_target>  (1) 
CYSA35VALA45ARGA50

$$$$
FRASE_1GDK_ISQ_fragment_1_0_PHEA69VALA76PHEA117
     RDKit          3D

 10 11  0  0  0  0  0  0  0  0999 V2000
    8.8210   -4.8660   75.4050 C   0  0  0  0  0  0  0  0  0  0  0  0
    9.3500   -5.4480   74.2880 N   0  0  0  0  0  0  0  0  0  0  0  0
   10.6030   -5.1760   73.8300 C   0  0  0  0  0  0  0  0  0  0  0  0
   11.3860   -4.2520   74.5100 C   0  0  0  0  0  0  0  0  0  0  0  0
   10.8940   -3.6910   75.6770 C   0  0  0  0  0  0  0  0  0  0  0  0
   11.6930   -2.8750   76.4610 C   0  0  0  0  0  0  0  0  0  0  0  0
   11.1970   -2.2260   77.5990 C   0  0  0  0  0  0  0  0  0  0  0  0
    9.8760   -2.4400   77.9400 C   0  0  0  0  0  0  0  0  0  0  0  0
    9.1010   -3.2410   77.1780 C   0  0  0  0  0  0  0  0  0  0  0  0
    9.5880   -3.9340   76.0720 C   0  0  0  0  0  0  0  0  0  0  0  0
  1  2  2  0
  1 10  1  0
  2  3  1  0
  3  4  2  0
  4  5  1  0
  5  6  1  0
  5 10  2  0
  6  7  2  0
  7  8  1  0
  8  9  2  0
  9 10  1  0
M  END
>  <PDBID_FRAGID>  (1) 
FRASE_1GDK_ISQ_fragment_1

>  <triplet_in_target>  (1) 
PHEA69VALA76PHEA117

$$$$
FRASE_6F4L_NTM_fragment_1_0_LEUA28PHEA34LEUA92
     RDKit          3D

 12 12  0  0  0  0  0  0  0  0999 V2000
   12.6040    6.0620   56.0090 N   0  0  0  0  0  0  0  0  0  0  0  0
   11.5270    6.2930   55.2390 C   0  0  0  0  0  0  0  0  0  0  0  0
   10.3340    5.4190   55.4020 C   0  0  0  0  0  0  0  0  0  0  0  0
   10.4070    4.4120   56.3330 C   0  0  0  0  0  0  0  0  0  0  0  0
   11.5580    4.2340   57.0780 C   0  0  0  0  0  0  0  0  0  0  0  0
   12.6410    5.0710   56.8950 C   0  0  0  0  0  0  0  0  0  0  0  0
   11.6080    7.4260   54.2630 C   0  0  0  0  0  0  0  0  0  0  0  0
   12.6110    8.1540   54.2730 O   0  0  0  0  0  0  0  0  0  0  0  0
   10.6920    7.6260   53.4570 O   0  0  0  0  0  0  0  0  0  0  0  0
    9.0790    5.5550   54.6220 C   0  0  0  0  0  0  0  0  0  0  0  0
    8.2250    6.3180   55.0150 O   0  0  0  0  0  0  0  0  0  0  0  0
    8.8870    4.8860   53.6110 O   0  0  0  0  0  0  0  0  0  0  0  0
  1  2  2  0
  1  6  1  0
  2  3  1  0
  2  7  1  0
  3  4  2  0
  3 10  1  0
  4  5  1  0
  5  6  2  0
  7  8  2  0
  7  9  1  0
 10 11  2  0
 10 12  1  0
M  END
>  <PDBID_FRAGID>  (1) 
FRASE_6F4L_NTM_fragment_1

>  <triplet_in_target>  (1) 
LEUA28PHEA34LEUA92

$$$$
FRASE_5UL0_VT1_fragment_3_0_TYRA110PHEA115LEUA170
     RDKit          3D

 10 10  0  0  0  0  0  0  0  0999 V2000
   20.0480   13.4870   72.8690 C   0  0  1  0  0  0  0  0  0  0  0  0
   19.8020   12.1560   72.9060 F   0  0  0  0  0  0  0  0  0  0  0  0
   19.4060   14.0140   73.9250 F   0  0  0  0  0  0  0  0  0  0  0  0
   21.5570   13.6960   73.2060 C   0  0  0  0  0  0  0  0  0  0  0  0
   22.4570   13.1180   72.0960 C   0  0  0  0  0  0  0  0  0  0  0  0
   23.8570   13.1280   72.4810 N   0  0  0  0  0  0  0  0  0  0  0  0
   24.4930   14.2730   72.8010 N   0  0  0  0  0  0  0  0  0  0  0  0
   25.7000   13.9330   73.1360 N   0  0  0  0  0  0  0  0  0  0  0  0
   25.8640   12.5840   73.0360 N   0  0  0  0  0  0  0  0  0  0  0  0
   24.7130   12.1280   72.6290 C   0  0  0  0  0  0  0  0  0  0  0  0
  1  2  1  1
  1  3  1  0
  1  4  1  0
  4  5  1  0
  5  6  1  0
  6  7  1  0
  6 10  1  0
  7  8  2  0
  8  9  1  0
  9 10  2  0
M  END
>  <PDBID_FRAGID>  (1) 
FRASE_5UL0_VT1_fragment_3

>  <triplet_in_target>  (1) 
TYRA110PHEA115LEUA170

$$$$
FRASE_4PDY_CG_fragment_1_0_ILEA156ILEA162THRA167
     RDKit          3D

 10 10  0  0  0  0  0  0  0  0999 V2000
   27.6560    9.5860   94.4350 N   0  0  0  0  0  0  0  0  0  0  0  0
   27.2880    8.6340   93.3930 C   0  0  2  0  0  0  0  0  0  0  0  0
   28.0140    7.3160   93.6410 C   0  0  0  0  0  0  0  0  0  0  0  0
   29.0240    7.0410   93.0980 O   0  0  0  0  0  0  0  0  0  0  0  0
   27.6500    9.1560   91.9960 C   0  0  0  0  0  0  0  0  0  0  0  0
   26.8390   10.3320   91.5330 C   0  0  0  0  0  0  0  0  0  0  0  0
   26.2940   10.3950   90.2680 N   0  0  0  0  0  0  0  0  0  0  0  0
   26.5030   11.4940   92.1440 C   0  0  0  0  0  0  0  0  0  0  0  0
   25.6490   11.5400   90.1230 C   0  0  0  0  0  0  0  0  0  0  0  0
   25.7530   12.2230   91.2480 N   0  0  0  0  0  0  0  0  0  0  0  0
  2  1  1  1
  2  3  1  0
  2  5  1  0
  3  4  2  0
  5  6  1  0
  6  7  1  0
  6  8  2  0
  7  9  2  0
  8 10  1  0
  9 10  1  0
M  END
>  <PDBID_FRAGID>  (1) 
FRASE_4PDY_CG_fragment_1

>  <triplet_in_target>  (1) 
ILEA156ILEA162THRA167

$$$$
FRASE_4HM0_IAC_fragment_1_0_PHEA77LEUA92VALA97
     RDKit          3D

 11 12  0  0  0  0  0  0  0  0999 V2000
    8.1580   -0.0680   62.6320 C   0  0  0  0  0  0  0  0  0  0  0  0
    8.6220    1.0910   63.2350 C   0  0  0  0  0  0  0  0  0  0  0  0
    8.2580    1.4980   64.5130 C   0  0  0  0  0  0  0  0  0  0  0  0
    7.3720    0.6930   65.2060 C   0  0  0  0  0  0  0  0  0  0  0  0
    6.9010   -0.4800   64.6170 C   0  0  0  0  0  0  0  0  0  0  0  0
    7.2790   -0.8710   63.3370 C   0  0  0  0  0  0  0  0  0  0  0  0
    9.5160    1.7290   62.2630 C   0  0  0  0  0  0  0  0  0  0  0  0
    9.5220    0.8960   61.1560 C   0  0  0  0  0  0  0  0  0  0  0  0
   10.2440    3.0200   62.4900 C   0  0  0  0  0  0  0  0  0  0  0  0
   11.5820    2.6320   63.0440 C   0  0  0  0  0  0  0  0  0  0  0  0
    8.7060   -0.1580   61.4100 N   0  0  0  0  0  0  0  0  0  0  0  0
  1  2  1  0
  1  6  2  0
  1 11  1  0
  2  3  2  0
  2  7  1  0
  3  4  1  0
  4  5  2  0
  5  6  1  0
  7  8  2  0
  7  9  1  0
  8 11  1  0
  9 10  1  0
M  END
>  <PDBID_FRAGID>  (1) 
FRASE_4HM0_IAC_fragment_1

>  <triplet_in_target>  (1) 
PHEA77LEUA92VALA97

$$$$
FRASE_1S2C_FLF_fragment_1_0_PHEA69PHEA115ASNA133
     RDKit          3D

  8  8  0  0  0  0  0  0  0  0999 V2000
   11.9240   -1.5130   79.7330 C   0  0  0  0  0  0  0  0  0  0  0  0
   11.5090   -1.3600   81.0540 C   0  0  0  0  0  0  0  0  0  0  0  0
   12.4440   -1.4500   82.0820 C   0  0  0  0  0  0  0  0  0  0  0  0
   13.7830   -1.7050   81.7870 C   0  0  0  0  0  0  0  0  0  0  0  0
   14.2480   -1.8600   80.4870 C   0  0  0  0  0  0  0  0  0  0  0  0
   13.3650   -1.7760   79.4120 C   0  0  0  0  0  0  0  0  0  0  0  0
   10.8810   -1.4110   78.6670 C   0  0  0  0  0  0  0  0  0  0  0  0
   13.7940   -1.9380   78.1300 N   0  0  0  0  0  0  0  0  0  0  0  0
  1  2  2  0
  1  6  1  0
  1  7  1  0
  2  3  1  0
  3  4  2  0
  4  5  1  0
  5  6  2  0
  6  8  1  0
M  END
>  <PDBID_FRAGID>  (1) 
FRASE_1S2C_FLF_fragment_1

>  <triplet_in_target>  (1) 
PHEA69PHEA115ASNA133

$$$$
FRASE_7YDC_IRV_fragment_2_0_ILEA106LEUA170ILEA177
     RDKit          3D

  9  9  0  0  0  0  0  0  0  0999 V2000
   19.8240   18.5230   70.3320 C   0  0  0  0  0  0  0  0  0  0  0  0
   20.1560   19.5180   71.4610 C   0  0  0  0  0  0  0  0  0  0  0  0
   19.2700   19.5360   72.7140 C   0  0  0  0  0  0  0  0  0  0  0  0
   19.4320   20.8330   73.5250 C   0  0  0  0  0  0  0  0  0  0  0  0
   19.2750   20.1130   75.8790 C   0  0  0  0  0  0  0  0  0  0  0  0
   18.3460   20.2560   76.8960 C   0  0  0  0  0  0  0  0  0  0  0  0
   17.6180   21.2630   75.1480 C   0  0  0  0  0  0  0  0  0  0  0  0
   18.7860   20.7410   74.8240 N   0  0  0  0  0  0  0  0  0  0  0  0
   17.3470   20.9690   76.4080 N   0  0  0  0  0  0  0  0  0  0  0  0
  1  2  1  0
  2  3  1  0
  3  4  1  0
  4  8  1  0
  5  6  2  0
  5  8  1  0
  6  9  1  0
  7  8  1  0
  7  9  2  0
M  END
>  <PDBID_FRAGID>  (1) 
FRASE_7YDC_IRV_fragment_2

>  <triplet_in_target>  (1) 
ILEA106LEUA170ILEA177

$$$$
FRASE_7S6S_BEZ_fragment_1_0_GLUA26HISA31LEUA95
     RDKit          3D

  9  9  0  0  0  0  0  0  0  0999 V2000
    4.1230   10.4490   59.2070 C   0  0  0  0  0  0  0  0  0  0  0  0
    4.7490   10.6020   58.1330 O   0  0  0  0  0  0  0  0  0  0  0  0
    4.7550   10.4790   60.2730 O   0  0  0  0  0  0  0  0  0  0  0  0
    2.6350   10.2150   59.2230 C   0  0  0  0  0  0  0  0  0  0  0  0
    1.9730    9.9600   58.0230 C   0  0  0  0  0  0  0  0  0  0  0  0
    0.5980    9.7100   58.0140 C   0  0  0  0  0  0  0  0  0  0  0  0
   -0.1100    9.7280   59.2150 C   0  0  0  0  0  0  0  0  0  0  0  0
    0.5560    9.9820   60.4220 C   0  0  0  0  0  0  0  0  0  0  0  0
    1.9350   10.2280   60.4370 C   0  0  0  0  0  0  0  0  0  0  0  0
  1  2  2  0
  1  3  1  0
  1  4  1  0
  4  5  2  0
  4  9  1  0
  5  6  1  0
  6  7  2  0
  7  8  1  0
  8  9  2  0
M  END
>  <PDBID_FRAGID>  (1) 
FRASE_7S6S_BEZ_fragment_1

>  <triplet_in_target>  (1) 
GLUA26HISA31LEUA95

$$$$
FRASE_5UL0_VT1_fragment_2_0_VALA76TYRA110PHEA115
     RDKit          3D

 11 11  0  0  0  0  0  0  0  0999 V2000
    4.7240    4.5400   81.0940 C   0  0  0  0  0  0  0  0  0  0  0  0
    4.6440    5.8760   80.7420 C   0  0  0  0  0  0  0  0  0  0  0  0
    5.6810    6.7160   80.7600 N   0  0  0  0  0  0  0  0  0  0  0  0
    5.9670    4.0820   81.5140 C   0  0  0  0  0  0  0  0  0  0  0  0
    7.0580    4.9270   81.5500 C   0  0  0  0  0  0  0  0  0  0  0  0
    6.8690    6.2440   81.1490 C   0  0  0  0  0  0  0  0  0  0  0  0
    7.9930    7.2640   81.0400 C   0  0  2  0  0  0  0  0  0  0  0  0
    7.8630    7.9190   79.8620 F   0  0  0  0  0  0  0  0  0  0  0  0
    9.1720    6.6200   80.9790 F   0  0  0  0  0  0  0  0  0  0  0  0
    8.2080    8.3350   82.1530 C   0  0  0  0  0  0  0  0  0  0  0  0
    6.9450    9.1970   82.3430 C   0  0  0  0  0  0  0  0  0  0  0  0
  1  2  2  0
  1  4  1  0
  2  3  1  0
  3  6  2  0
  4  5  2  0
  5  6  1  0
  6  7  1  0
  7  8  1  6
  7  9  1  0
  7 10  1  0
 10 11  1  0
M  END
>  <PDBID_FRAGID>  (1) 
FRASE_5UL0_VT1_fragment_2

>  <triplet_in_target>  (1) 
VALA76TYRA110PHEA115

$$$$
FRASE_5UL0_VT1_fragment_3_0_ILEA73TYRA110PHEA115
     RDKit          3D

 10 10  0  0  0  0  0  0  0  0999 V2000
    7.9320    2.7300   77.6790 C   0  0  1  0  0  0  0  0  0  0  0  0
    7.8660    3.6120   76.6550 F   0  0  0  0  0  0  0  0  0  0  0  0
    9.2300    2.6480   78.0180 F   0  0  0  0  0  0  0  0  0  0  0  0
    7.2620    3.3990   78.9200 C   0  0  0  0  0  0  0  0  0  0  0  0
    5.7510    3.5970   78.6930 C   0  0  0  0  0  0  0  0  0  0  0  0
    5.1490    4.3910   79.7490 N   0  0  0  0  0  0  0  0  0  0  0  0
    5.2000    4.0020   81.0400 N   0  0  0  0  0  0  0  0  0  0  0  0
    4.6180    4.9410   81.7210 N   0  0  0  0  0  0  0  0  0  0  0  0
    4.1850    5.9360   80.8970 N   0  0  0  0  0  0  0  0  0  0  0  0
    4.5270    5.5590   79.6970 C   0  0  0  0  0  0  0  0  0  0  0  0
  1  2  1  6
  1  3  1  0
  1  4  1  0
  4  5  1  0
  5  6  1  0
  6  7  1  0
  6 10  1  0
  7  8  2  0
  8  9  1  0
  9 10  2  0
M  END
>  <PDBID_FRAGID>  (1) 
FRASE_5UL0_VT1_fragment_3

>  <triplet_in_target>  (1) 
ILEA73TYRA110PHEA115

$$$$
FRASE_1ALN_CTD_fragment_1_0_THRA23LEUA29LEUA92
     RDKit          3D

  9  9  0  0  0  0  0  0  0  0999 V2000
    9.8200    5.3330   56.5050 C   0  0  0  0  0  0  0  0  0  0  0  0
   10.0950    6.0850   57.7530 C   0  0  2  0  0  0  0  0  0  0  0  0
    8.9650    5.9790   58.6600 O   0  0  0  0  0  0  0  0  0  0  0  0
   10.3670    7.4070   57.2080 C   0  0  1  0  0  0  0  0  0  0  0  0
   10.9330    7.1020   55.8210 C   0  0  2  0  0  0  0  0  0  0  0  0
   10.2820    5.9540   55.3040 O   0  0  0  0  0  0  0  0  0  0  0  0
    9.1780    8.1350   57.0550 O   0  0  0  0  0  0  0  0  0  0  0  0
   12.4020    7.0370   55.7280 C   0  0  0  0  0  0  0  0  0  0  0  0
   12.8320    5.9820   56.5770 O   0  0  0  0  0  0  0  0  0  0  0  0
  1  2  1  0
  1  6  1  0
  2  3  1  1
  2  4  1  0
  4  5  1  0
  4  7  1  6
  5  6  1  0
  5  8  1  1
  8  9  1  0
M  END
>  <PDBID_FRAGID>  (1) 
FRASE_1ALN_CTD_fragment_1

>  <triplet_in_target>  (1) 
THRA23LEUA29LEUA92

$$$$
FRASE_5K7K_6RJ_fragment_1_0_ILEA156ILEA162GLYA166
     RDKit          3D

 13 13  0  0  0  0  0  0  0  0999 V2000
   27.2140    9.7190   91.6320 C   0  0  0  0  0  0  0  0  0  0  0  0
   27.5930   12.0820   91.5380 C   0  0  0  0  0  0  0  0  0  0  0  0
   27.1720    8.4290   90.9980 C   0  0  0  0  0  0  0  0  0  0  0  0
   27.2800   12.2020   92.8820 C   0  0  0  0  0  0  0  0  0  0  0  0
   26.9670   11.0710   93.6110 C   0  0  0  0  0  0  0  0  0  0  0  0
   26.9460    9.8260   93.0010 C   0  0  0  0  0  0  0  0  0  0  0  0
   27.5340   10.8540   90.9050 C   0  0  0  0  0  0  0  0  0  0  0  0
   28.1120   13.4960   90.6240 S   0  0  1  0  0  0  0  0  0  0  0  0
   29.2580   14.0590   91.2640 O   0  0  0  0  0  0  0  0  0  0  0  0
   28.1670   13.1320   89.2510 O   0  0  0  0  0  0  0  0  0  0  0  0
   26.8870   14.5410   90.8220 N   0  0  0  0  0  0  0  0  0  0  0  0
   27.1300    7.3920   90.5290 N   0  0  0  0  0  0  0  0  0  0  0  0
   27.1160    8.6550   93.6950 O   0  0  0  0  0  0  0  0  0  0  0  0
  1  3  1  0
  1  6  2  0
  1  7  1  0
  2  4  1  0
  2  7  2  0
  2  8  1  0
  3 12  3  0
  4  5  2  0
  5  6  1  0
  6 13  1  0
  8  9  2  0
  8 10  2  0
  8 11  1  6
M  END
>  <PDBID_FRAGID>  (1) 
FRASE_5K7K_6RJ_fragment_1

>  <triplet_in_target>  (1) 
ILEA156ILEA162GLYA166

$$$$
FRASE_5G6J_M94_fragment_2_0_HISA31ALAA51PHEA91
     RDKit          3D

 13 14  0  0  0  0  0  0  0  0999 V2000
   -3.2890    6.5350   59.6750 O   0  0  0  0  0  0  0  0  0  0  0  0
   -4.5610    6.3280   60.2950 C   0  0  0  0  0  0  0  0  0  0  0  0
   -4.6980    4.5030   63.5770 C   0  0  0  0  0  0  0  0  0  0  0  0
   -5.0590    4.9800   62.3370 C   0  0  0  0  0  0  0  0  0  0  0  0
   -4.1830    5.8020   61.6460 C   0  0  0  0  0  0  0  0  0  0  0  0
   -2.9420    6.1390   62.1880 C   0  0  0  0  0  0  0  0  0  0  0  0
   -2.5540    5.6390   63.4280 C   0  0  0  0  0  0  0  0  0  0  0  0
   -3.4430    4.8180   64.1240 C   0  0  0  0  0  0  0  0  0  0  0  0
   -3.1010    4.3070   65.3650 C   0  0  0  0  0  0  0  0  0  0  0  0
   -4.0110    3.4780   66.0330 C   0  0  0  0  0  0  0  0  0  0  0  0
   -5.2600    3.1870   65.4590 C   0  0  0  0  0  0  0  0  0  0  0  0
   -6.1710    2.3970   66.1110 N   0  0  0  0  0  0  0  0  0  0  0  0
   -5.5790    3.7120   64.2560 N   0  0  0  0  0  0  0  0  0  0  0  0
  1  2  1  0
  2  5  1  0
  3  4  2  0
  3  8  1  0
  3 13  1  0
  4  5  1  0
  5  6  2  0
  6  7  1  0
  7  8  2  0
  8  9  1  0
  9 10  2  0
 10 11  1  0
 11 12  1  0
 11 13  2  0
M  END
>  <PDBID_FRAGID>  (1) 
FRASE_5G6J_M94_fragment_2

>  <triplet_in_target>  (1) 
HISA31ALAA51PHEA91

$$$$
FRASE_6EHA_B5B_fragment_3_0_PHEA77LEUA92PHEA98
     RDKit          3D

 10 10  0  0  0  0  0  0  0  0999 V2000
   10.6010   -1.4500   61.3630 C   0  0  0  0  0  0  0  0  0  0  0  0
    7.5870    0.6610   63.5110 C   0  0  0  0  0  0  0  0  0  0  0  0
    8.9220    0.0800   63.9470 C   0  0  2  0  0  0  0  0  0  0  0  0
    8.9500   -0.0690   65.4830 C   0  0  0  0  0  0  0  0  0  0  0  0
   10.1680    0.8090   63.3890 C   0  0  0  0  0  0  0  0  0  0  0  0
   10.1560    0.9450   61.8730 C   0  0  0  0  0  0  0  0  0  0  0  0
    9.9350    2.0510   61.0920 C   0  0  0  0  0  0  0  0  0  0  0  0
   10.0070    1.7010   59.8280 N   0  0  0  0  0  0  0  0  0  0  0  0
   10.2660    0.4060   59.7790 C   0  0  0  0  0  0  0  0  0  0  0  0
   10.3530   -0.0640   61.0450 N   0  0  0  0  0  0  0  0  0  0  0  0
  1 10  1  0
  3  2  1  1
  3  4  1  0
  3  5  1  0
  5  6  1  0
  6  7  2  0
  6 10  1  0
  7  8  1  0
  8  9  2  0
  9 10  1  0
M  END
>  <PDBID_FRAGID>  (1) 
FRASE_6EHA_B5B_fragment_3

>  <triplet_in_target>  (1) 
PHEA77LEUA92PHEA98

$$$$
FRASE_5CSX_54J_fragment_2_0_PHEA21PHEA98ILEA106
     RDKit          3D

  6  6  0  0  0  0  0  0  0  0999 V2000
    6.6550    8.9200   67.2720 C   0  0  0  0  0  0  0  0  0  0  0  0
    7.4040   11.4200   67.9290 C   0  0  0  0  0  0  0  0  0  0  0  0
    6.8910   11.1270   66.6470 C   0  0  0  0  0  0  0  0  0  0  0  0
    6.5330    9.8770   66.3660 N   0  0  0  0  0  0  0  0  0  0  0  0
    7.1200    9.1440   68.4830 N   0  0  0  0  0  0  0  0  0  0  0  0
    7.4930   10.3580   68.8490 C   0  0  0  0  0  0  0  0  0  0  0  0
  1  4  2  0
  1  5  1  0
  2  3  2  0
  2  6  1  0
  3  4  1  0
  5  6  2  0
M  END
>  <PDBID_FRAGID>  (1) 
FRASE_5CSX_54J_fragment_2

>  <triplet_in_target>  (1) 
PHEA21PHEA98ILEA106

$$$$
FRASE_4BN5_SR7_fragment_2_0_PHEA21ILEA27LEUA94
     RDKit          3D

 13 14  0  0  0  0  0  0  0  0999 V2000
   12.5470    6.6940   57.5420 C   0  0  0  0  0  0  0  0  0  0  0  0
   11.7840    6.9570   58.6660 C   0  0  0  0  0  0  0  0  0  0  0  0
   12.1830    7.8770   59.4340 N   0  0  0  0  0  0  0  0  0  0  0  0
   13.3170    8.5380   59.1090 C   0  0  0  0  0  0  0  0  0  0  0  0
   14.1280    8.2960   58.0240 C   0  0  0  0  0  0  0  0  0  0  0  0
   13.7010    7.3420   57.1860 N   0  0  0  0  0  0  0  0  0  0  0  0
   10.8200    5.0520   57.1990 C   0  0  0  0  0  0  0  0  0  0  0  0
   10.1090    5.3790   58.3300 C   0  0  0  0  0  0  0  0  0  0  0  0
   10.6170    6.3700   59.0880 C   0  0  0  0  0  0  0  0  0  0  0  0
   12.0090    5.6890   56.8050 C   0  0  0  0  0  0  0  0  0  0  0  0
   15.5850    9.5560   59.3130 N   0  0  0  0  0  0  0  0  0  0  0  0
   15.2220    9.1830   58.0350 C   0  0  0  0  0  0  0  0  0  0  0  0
   15.6550    9.6880   57.0160 O   0  0  0  0  0  0  0  0  0  0  0  0
  1  2  1  0
  1  6  2  0
  1 10  1  0
  2  3  2  0
  2  9  1  0
  3  4  1  0
  4  5  2  0
  5  6  1  0
  5 12  1  0
  7  8  1  0
  7 10  2  0
  8  9  2  0
 11 12  1  0
 12 13  2  0
M  END
>  <PDBID_FRAGID>  (1) 
FRASE_4BN5_SR7_fragment_2

>  <triplet_in_target>  (1) 
PHEA21ILEA27LEUA94

$$$$
FRASE_6JSN_C7O_fragment_3_0_ARGA125VALA132LEUA152
     RDKit          3D

 10 10  0  0  0  0  0  0  0  0999 V2000
   27.0380    6.6800   79.8650 C   0  0  0  0  0  0  0  0  0  0  0  0
   25.6230    7.1520   80.2750 C   0  0  0  0  0  0  0  0  0  0  0  0
   23.4290    7.5500   79.6330 C   0  0  0  0  0  0  0  0  0  0  0  0
   25.3170    7.5270   81.5830 C   0  0  0  0  0  0  0  0  0  0  0  0
   24.0660    7.9020   81.8590 N   0  0  0  0  0  0  0  0  0  0  0  0
   23.1140    7.9240   80.9220 C   0  0  0  0  0  0  0  0  0  0  0  0
   24.6690    7.1490   79.3470 N   0  0  0  0  0  0  0  0  0  0  0  0
   21.7810    8.3180   81.1790 O   0  0  0  0  0  0  0  0  0  0  0  0
   21.4580    8.4820   82.5510 C   0  0  0  0  0  0  0  0  0  0  0  0
   21.5160    7.2850   83.2210 F   0  0  0  0  0  0  0  0  0  0  0  0
  1  2  1  0
  2  4  2  0
  2  7  1  0
  3  6  1  0
  3  7  2  0
  4  5  1  0
  5  6  2  0
  6  8  1  0
  8  9  1  0
  9 10  1  0
M  END
>  <PDBID_FRAGID>  (1) 
FRASE_6JSN_C7O_fragment_3

>  <triplet_in_target>  (1) 
ARGA125VALA132LEUA152

$$$$
FRASE_5G6N_8VJ_fragment_2_0_HISA31ALAA51PHEA91
     RDKit          3D

 13 14  0  0  0  0  0  0  0  0999 V2000
   -2.9820    6.6130   59.7060 O   0  0  0  0  0  0  0  0  0  0  0  0
   -4.2360    6.3270   60.3350 C   0  0  0  0  0  0  0  0  0  0  0  0
   -4.5880    4.4590   63.5620 C   0  0  0  0  0  0  0  0  0  0  0  0
   -4.8550    4.9550   62.3170 C   0  0  0  0  0  0  0  0  0  0  0  0
   -3.9420    5.7940   61.7030 C   0  0  0  0  0  0  0  0  0  0  0  0
   -2.7540    6.1370   62.3270 C   0  0  0  0  0  0  0  0  0  0  0  0
   -2.4690    5.6230   63.5800 C   0  0  0  0  0  0  0  0  0  0  0  0
   -3.3840    4.7860   64.1930 C   0  0  0  0  0  0  0  0  0  0  0  0
   -3.1030    4.2660   65.4510 C   0  0  0  0  0  0  0  0  0  0  0  0
   -4.0460    3.4250   66.0390 C   0  0  0  0  0  0  0  0  0  0  0  0
   -5.2440    3.1240   65.3810 C   0  0  0  0  0  0  0  0  0  0  0  0
   -6.1560    2.3130   65.9830 N   0  0  0  0  0  0  0  0  0  0  0  0
   -5.4960    3.6440   64.1600 N   0  0  0  0  0  0  0  0  0  0  0  0
  1  2  1  0
  2  5  1  0
  3  4  2  0
  3  8  1  0
  3 13  1  0
  4  5  1  0
  5  6  2  0
  6  7  1  0
  7  8  2  0
  8  9  1  0
  9 10  2  0
 10 11  1  0
 11 12  1  0
 11 13  2  0
M  END
>  <PDBID_FRAGID>  (1) 
FRASE_5G6N_8VJ_fragment_2

>  <triplet_in_target>  (1) 
HISA31ALAA51PHEA91

$$$$
FRASE_5G6M_9M9_fragment_1_0_HISA31ALAA51PHEA91
     RDKit          3D

 13 14  0  0  0  0  0  0  0  0999 V2000
   -5.5280    3.4650   64.3000 N   0  0  0  0  0  0  0  0  0  0  0  0
   -5.2840    2.9150   65.5250 C   0  0  0  0  0  0  0  0  0  0  0  0
   -6.2570    2.1180   66.0810 N   0  0  0  0  0  0  0  0  0  0  0  0
   -4.0640    3.1590   66.2060 C   0  0  0  0  0  0  0  0  0  0  0  0
   -3.1220    4.0020   65.6050 C   0  0  0  0  0  0  0  0  0  0  0  0
   -3.3870    4.5490   64.3520 C   0  0  0  0  0  0  0  0  0  0  0  0
   -2.4670    5.4160   63.7230 C   0  0  0  0  0  0  0  0  0  0  0  0
   -2.7630    5.9590   62.4540 C   0  0  0  0  0  0  0  0  0  0  0  0
   -3.9610    5.6250   61.8130 C   0  0  0  0  0  0  0  0  0  0  0  0
   -4.8720    4.7870   62.4380 C   0  0  0  0  0  0  0  0  0  0  0  0
   -4.6020    4.2760   63.7100 C   0  0  0  0  0  0  0  0  0  0  0  0
   -4.3100    6.1770   60.4420 C   0  0  0  0  0  0  0  0  0  0  0  0
   -3.0690    6.4610   59.7750 O   0  0  0  0  0  0  0  0  0  0  0  0
  1  2  2  0
  1 11  1  0
  2  3  1  0
  2  4  1  0
  4  5  2  0
  5  6  1  0
  6  7  1  0
  6 11  2  0
  7  8  2  0
  8  9  1  0
  9 10  2  0
  9 12  1  0
 10 11  1  0
 12 13  1  0
M  END
>  <PDBID_FRAGID>  (1) 
FRASE_5G6M_9M9_fragment_1

>  <triplet_in_target>  (1) 
HISA31ALAA51PHEA91

$$$$
FRASE_5LBT_6T0_fragment_4_0_PHEA34GLNA42LEUA49
     RDKit          3D

  7  7  0  0  0  0  0  0  0  0999 V2000
   -3.0620    0.0840   52.9920 C   0  0  0  0  0  0  0  0  0  0  0  0
   -3.7640   -0.9600   52.2460 C   0  0  0  0  0  0  0  0  0  0  0  0
   -1.7540   -0.1200   52.7310 N   0  0  0  0  0  0  0  0  0  0  0  0
   -1.6540   -1.1980   51.8950 C   0  0  0  0  0  0  0  0  0  0  0  0
   -2.8680   -1.7060   51.6020 N   0  0  0  0  0  0  0  0  0  0  0  0
   -3.1370   -2.8580   50.7400 C   0  0  0  0  0  0  0  0  0  0  0  0
   -2.0540   -2.9400   49.6670 C   0  0  0  0  0  0  0  0  0  0  0  0
  1  2  1  0
  1  3  1  0
  2  5  1  0
  3  4  1  0
  4  5  1  0
  5  6  1  0
  6  7  1  0
M  END
>  <PDBID_FRAGID>  (1) 
FRASE_5LBT_6T0_fragment_4

>  <triplet_in_target>  (1) 
PHEA34GLNA42LEUA49

$$$$
FRASE_2LH6_NIO_fragment_1_0_PHEA69VALA76PHEA117
     RDKit          3D

  9  9  0  0  0  0  0  0  0  0999 V2000
    9.2870   -5.6090   74.8080 N   0  0  0  0  0  0  0  0  0  0  0  0
    9.1560   -4.6220   75.7940 C   0  0  0  0  0  0  0  0  0  0  0  0
   10.1360   -3.8130   76.0290 C   0  0  0  0  0  0  0  0  0  0  0  0
   11.2640   -4.0270   75.2480 C   0  0  0  0  0  0  0  0  0  0  0  0
   11.3820   -5.0420   74.2390 C   0  0  0  0  0  0  0  0  0  0  0  0
   10.3780   -5.8300   74.0320 C   0  0  0  0  0  0  0  0  0  0  0  0
    9.9590   -2.7200   77.1200 C   0  0  0  0  0  0  0  0  0  0  0  0
   10.8770   -2.1980   77.5170 O   0  0  0  0  0  0  0  0  0  0  0  0
    8.9380   -2.5600   77.7720 O   0  0  0  0  0  0  0  0  0  0  0  0
  1  2  2  0
  1  6  1  0
  2  3  1  0
  3  4  2  0
  3  7  1  0
  4  5  1  0
  5  6  2  0
  7  8  2  0
  7  9  1  0
M  END
>  <PDBID_FRAGID>  (1) 
FRASE_2LH6_NIO_fragment_1

>  <triplet_in_target>  (1) 
PHEA69VALA76PHEA117

$$$$
FRASE_4X2J_3WN_fragment_1_0_VALA53SERA80ASPA90
     RDKit          3D

 12 13  0  0  0  0  0  0  0  0999 V2000
   -6.2860    1.6800   69.7820 C   0  0  0  0  0  0  0  0  0  0  0  0
   -6.8130    0.4950   70.1210 C   0  0  0  0  0  0  0  0  0  0  0  0
   -4.8330   -1.7450   66.5480 C   0  0  0  0  0  0  0  0  0  0  0  0
   -4.4390    0.5350   66.6690 C   0  0  0  0  0  0  0  0  0  0  0  0
   -6.6080   -0.6290   69.4000 N   0  0  0  0  0  0  0  0  0  0  0  0
   -5.4810    1.7990   68.6250 C   0  0  0  0  0  0  0  0  0  0  0  0
   -5.2380    0.5790   67.8310 C   0  0  0  0  0  0  0  0  0  0  0  0
   -5.8420   -0.6300   68.2770 C   0  0  0  0  0  0  0  0  0  0  0  0
   -5.6140   -1.7540   67.6170 N   0  0  0  0  0  0  0  0  0  0  0  0
   -4.2600   -0.6570   66.0670 N   0  0  0  0  0  0  0  0  0  0  0  0
   -4.9880    2.8780   68.3510 O   0  0  0  0  0  0  0  0  0  0  0  0
   -3.8580    1.7050   66.2220 N   0  0  0  0  0  0  0  0  0  0  0  0
  1  2  2  0
  1  6  1  0
  2  5  1  0
  3  9  1  0
  3 10  2  0
  4  7  2  0
  4 10  1  0
  4 12  1  0
  5  8  1  0
  6  7  1  0
  6 11  2  0
  7  8  1  0
  8  9  2  0
M  END
>  <PDBID_FRAGID>  (1) 
FRASE_4X2J_3WN_fragment_1

>  <triplet_in_target>  (1) 
VALA53SERA80ASPA90

$$$$
FRASE_4MUF_2DJ_fragment_2_0_PHEA69VALA76ASPA116
     RDKit          3D

 16 16  0  0  0  0  0  0  0  0999 V2000
    9.8960   -3.6930   72.1860 C   0  0  0  0  0  0  0  0  0  0  0  0
    8.9480   -3.2280   72.8360 O   0  0  0  0  0  0  0  0  0  0  0  0
   10.4770   -4.8560   72.4850 N   0  0  0  0  0  0  0  0  0  0  0  0
    9.8860   -5.5890   73.8030 S   0  0  2  0  0  0  0  0  0  0  0  0
   10.3100   -7.0850   73.8160 O   0  0  0  0  0  0  0  0  0  0  0  0
    8.3550   -5.4100   73.7270 O   0  0  0  0  0  0  0  0  0  0  0  0
   10.3460   -4.8400   75.2630 C   0  0  0  0  0  0  0  0  0  0  0  0
   11.4410   -5.3820   75.8970 C   0  0  0  0  0  0  0  0  0  0  0  0
   11.8630   -4.8690   77.1020 C   0  0  0  0  0  0  0  0  0  0  0  0
   11.1850   -3.7990   77.6760 C   0  0  0  0  0  0  0  0  0  0  0  0
   11.7180   -3.3670   78.8780 C   0  0  1  0  0  0  0  0  0  0  0  0
   12.5740   -2.1270   78.6530 C   0  0  0  0  0  0  0  0  0  0  0  0
   10.6330   -3.0300   79.8890 C   0  0  0  0  0  0  0  0  0  0  0  0
   12.5590   -4.5330   79.4130 C   0  0  0  0  0  0  0  0  0  0  0  0
   10.0540   -3.2340   77.0410 C   0  0  0  0  0  0  0  0  0  0  0  0
    9.6290   -3.7700   75.8200 C   0  0  0  0  0  0  0  0  0  0  0  0
  1  2  2  0
  1  3  1  0
  4  3  1  6
  4  5  2  0
  4  6  2  0
  4  7  1  0
  7  8  2  0
  7 16  1  0
  8  9  1  0
  9 10  2  0
 10 11  1  0
 10 15  1  0
 11 12  1  6
 11 13  1  0
 11 14  1  0
 15 16  2  0
M  END
>  <PDBID_FRAGID>  (1) 
FRASE_4MUF_2DJ_fragment_2

>  <triplet_in_target>  (1) 
PHEA69VALA76ASPA116

$$$$
FRASE_3E85_BSU_fragment_8_0_ILEA73PHEA112PHEA117
     RDKit          3D

 10 10  0  0  0  0  0  0  0  0999 V2000
    6.9700    7.2500   79.9900 N   0  0  0  0  0  0  0  0  0  0  0  0
    6.7770    5.9240   79.9090 C   0  0  0  0  0  0  0  0  0  0  0  0
    7.1890    5.4950   78.6800 N   0  0  0  0  0  0  0  0  0  0  0  0
    6.3160    5.2090   80.7980 O   0  0  0  0  0  0  0  0  0  0  0  0
    7.2200    4.2380   78.0230 C   0  0  0  0  0  0  0  0  0  0  0  0
    8.0090    4.1550   76.8950 C   0  0  0  0  0  0  0  0  0  0  0  0
    8.0880    2.9810   76.1840 C   0  0  0  0  0  0  0  0  0  0  0  0
    7.3780    1.8710   76.5520 C   0  0  0  0  0  0  0  0  0  0  0  0
    6.5850    1.9520   77.6550 C   0  0  0  0  0  0  0  0  0  0  0  0
    6.5090    3.1380   78.3910 C   0  0  0  0  0  0  0  0  0  0  0  0
  1  2  1  0
  2  3  1  0
  2  4  1  0
  3  5  1  0
  5  6  1  0
  5 10  1  0
  6  7  1  0
  7  8  1  0
  8  9  1  0
  9 10  1  0
M  END
>  <PDBID_FRAGID>  (1) 
FRASE_3E85_BSU_fragment_8

>  <triplet_in_target>  (1) 
ILEA73PHEA112PHEA117

$$$$
FRASE_8POM_ZUP_fragment_3_0_ILEA106LEUA170ILEA177
     RDKit          3D

 10 10  0  0  0  0  0  0  0  0999 V2000
   16.1360   21.4810   77.6000 C   0  0  0  0  0  0  0  0  0  0  0  0
   16.9380   20.7170   76.6050 C   0  0  0  0  0  0  0  0  0  0  0  0
   16.2230   20.1880   75.5250 C   0  0  0  0  0  0  0  0  0  0  0  0
   16.9000   19.4530   74.5470 C   0  0  0  0  0  0  0  0  0  0  0  0
   18.2840   19.2810   74.7360 C   0  0  0  0  0  0  0  0  0  0  0  0
   18.3380   20.5010   76.7090 C   0  0  0  0  0  0  0  0  0  0  0  0
   19.0180   19.7860   75.7710 N   0  0  0  0  0  0  0  0  0  0  0  0
   19.1030   21.0850   77.8220 N   0  0  0  0  0  0  0  0  0  0  0  0
   14.9510   21.0740   77.7950 O   0  0  0  0  0  0  0  0  0  0  0  0
   16.7330   22.4350   78.1650 O   0  0  0  0  0  0  0  0  0  0  0  0
  1  2  1  0
  1  9  2  0
  1 10  1  0
  2  3  2  0
  2  6  1  0
  3  4  1  0
  4  5  2  0
  5  7  1  0
  6  7  2  0
  6  8  1  0
M  END
>  <PDBID_FRAGID>  (1) 
FRASE_8POM_ZUP_fragment_3

>  <triplet_in_target>  (1) 
ILEA106LEUA170ILEA177

$$$$
FRASE_7ZT0_JUR_fragment_2_0_LEUA64PROA68CYSA74
     RDKit          3D

  6  6  0  0  0  0  0  0  0  0999 V2000
   16.2490   -0.3540   65.5780 C   0  0  0  0  0  0  0  0  0  0  0  0
   16.1000   -1.6280   66.0690 C   0  0  0  0  0  0  0  0  0  0  0  0
   14.9990   -1.9140   66.8640 C   0  0  0  0  0  0  0  0  0  0  0  0
   14.2440    0.2510   66.6940 C   0  0  0  0  0  0  0  0  0  0  0  0
   15.3040    0.6220   65.8980 C   0  0  0  0  0  0  0  0  0  0  0  0
   14.1060   -0.9750   67.1560 N   0  0  0  0  0  0  0  0  0  0  0  0
  1  2  2  0
  1  5  1  0
  2  3  1  0
  3  6  2  0
  4  5  2  0
  4  6  1  0
M  END
>  <PDBID_FRAGID>  (1) 
FRASE_7ZT0_JUR_fragment_2

>  <triplet_in_target>  (1) 
LEUA64PROA68CYSA74

$$$$
FRASE_5SAY_1IJ_fragment_1_0_LEUA28PHEA34VALA45
     RDKit          3D

  8  8  0  0  0  0  0  0  0  0999 V2000
   -0.4370   -3.3390   51.0800 C   0  0  0  0  0  0  0  0  0  0  0  0
    1.6630   -2.3890   50.5040 C   0  0  0  0  0  0  0  0  0  0  0  0
    1.5520   -4.5060   51.4000 C   0  0  0  0  0  0  0  0  0  0  0  0
    2.3270   -3.4700   50.9030 N   0  0  0  0  0  0  0  0  0  0  0  0
    0.1600   -4.4700   51.5000 N   0  0  0  0  0  0  0  0  0  0  0  0
    0.2770   -2.2620   50.5560 C   0  0  0  0  0  0  0  0  0  0  0  0
   -0.3690   -1.1030   50.1360 O   0  0  0  0  0  0  0  0  0  0  0  0
    2.1820   -5.5950   51.8170 N   0  0  0  0  0  0  0  0  0  0  0  0
  1  5  2  0
  1  6  1  0
  2  4  1  0
  2  6  2  0
  3  4  2  0
  3  5  1  0
  3  8  1  0
  6  7  1  0
M  END
>  <PDBID_FRAGID>  (1) 
FRASE_5SAY_1IJ_fragment_1

>  <triplet_in_target>  (1) 
LEUA28PHEA34VALA45

$$$$
FRASE_5NAK_KYN_fragment_1_0_LYSA70VALA76LEUA94
     RDKit          3D

 14 14  0  0  0  0  0  0  0  0999 V2000
   17.3460    4.9940   71.8980 C   0  0  0  0  0  0  0  0  0  0  0  0
   15.9890    6.6520   73.2190 N   0  0  0  0  0  0  0  0  0  0  0  0
   18.3410    5.1630   72.5640 O   0  0  0  0  0  0  0  0  0  0  0  0
   15.1690    7.9010   70.5870 C   0  0  0  0  0  0  0  0  0  0  0  0
   12.9040    9.3880   69.4440 N   0  0  0  0  0  0  0  0  0  0  0  0
   14.1580    7.8190   71.2690 O   0  0  0  0  0  0  0  0  0  0  0  0
   16.1200    5.9460   71.9340 C   0  0  1  0  0  0  0  0  0  0  0  0
   16.3300    6.9580   70.8040 C   0  0  0  0  0  0  0  0  0  0  0  0
   14.1830    9.6700   69.0410 C   0  0  0  0  0  0  0  0  0  0  0  0
   16.7440   10.2090   68.0240 C   0  0  0  0  0  0  0  0  0  0  0  0
   14.3940   10.6810   68.0880 C   0  0  0  0  0  0  0  0  0  0  0  0
   15.3080    8.9430   69.5170 C   0  0  0  0  0  0  0  0  0  0  0  0
   15.6620   10.9440   67.5890 C   0  0  0  0  0  0  0  0  0  0  0  0
   16.5760    9.2240   68.9880 C   0  0  0  0  0  0  0  0  0  0  0  0
  1  3  2  0
  1  7  1  0
  7  2  1  1
  4  6  2  0
  4  8  1  0
  4 12  1  0
  5  9  1  0
  7  8  1  0
  9 11  2  0
  9 12  1  0
 10 13  2  0
 10 14  1  0
 11 13  1  0
 12 14  2  0
M  END
>  <PDBID_FRAGID>  (1) 
FRASE_5NAK_KYN_fragment_1

>  <triplet_in_target>  (1) 
LYSA70VALA76LEUA94

$$$$
FRASE_3WFG_WFG_fragment_2_0_PHEA34GLNA42VALA45
     RDKit          3D

  7  7  0  0  0  0  0  0  0  0999 V2000
   -0.4220   -3.3030   50.6480 C   0  0  0  0  0  0  0  0  0  0  0  0
    0.6260   -3.8870   51.2420 C   0  0  0  0  0  0  0  0  0  0  0  0
   -1.6210   -3.7050   51.4380 C   0  0  0  0  0  0  0  0  0  0  0  0
    0.1940   -4.7310   52.3900 C   0  0  2  0  0  0  0  0  0  0  0  0
    0.5330   -6.1880   52.2430 C   0  0  0  0  0  0  0  0  0  0  0  0
   -2.7890   -3.3720   51.2660 O   0  0  0  0  0  0  0  0  0  0  0  0
   -1.2230   -4.5550   52.4180 O   0  0  0  0  0  0  0  0  0  0  0  0
  1  2  2  0
  1  3  1  0
  2  4  1  0
  3  6  2  0
  3  7  1  0
  4  5  1  6
  4  7  1  0
M  END
>  <PDBID_FRAGID>  (1) 
FRASE_3WFG_WFG_fragment_2

>  <triplet_in_target>  (1) 
PHEA34GLNA42VALA45

$$$$
FRASE_8AY6_QPZ_fragment_1_0_LEUA28PHEA34VALA45
     RDKit          3D

 14 15  0  0  0  0  0  0  0  0999 V2000
   -0.3860    0.2130   48.2680 C   0  0  0  0  0  0  0  0  0  0  0  0
   -0.2990    0.7590   49.5370 C   0  0  0  0  0  0  0  0  0  0  0  0
   -0.5600   -2.2910   51.5990 N   0  0  0  0  0  0  0  0  0  0  0  0
   -0.3690   -0.0740   50.6440 C   0  0  0  0  0  0  0  0  0  0  0  0
   -0.7440   -4.3510   52.5240 O   0  0  0  0  0  0  0  0  0  0  0  0
   -0.4970   -1.4480   50.4860 C   0  0  0  0  0  0  0  0  0  0  0  0
   -0.5640   -2.0050   49.1940 C   0  0  0  0  0  0  0  0  0  0  0  0
   -0.5040   -1.1520   48.0920 C   0  0  0  0  0  0  0  0  0  0  0  0
   -0.7080   -3.4270   49.0580 C   0  0  0  0  0  0  0  0  0  0  0  0
   -0.7710   -4.1810   50.1680 C   0  0  0  0  0  0  0  0  0  0  0  0
   -0.6990   -3.6670   51.4950 C   0  0  0  0  0  0  0  0  0  0  0  0
   -0.7990   -4.0430   47.6910 C   0  0  0  0  0  0  0  0  0  0  0  0
   -0.4880   -1.7280   52.9430 C   0  0  0  0  0  0  0  0  0  0  0  0
   -0.2890    1.2490   46.8630 S   0  0  0  0  0  0  0  0  0  0  0  0
  1  2  2  0
  1  8  1  0
  1 14  1  0
  2  4  1  0
  3  6  1  0
  3 11  1  0
  3 13  1  0
  4  6  2  0
  5 11  2  0
  6  7  1  0
  7  8  2  0
  7  9  1  0
  9 10  2  0
  9 12  1  0
 10 11  1  0
M  END
>  <PDBID_FRAGID>  (1) 
FRASE_8AY6_QPZ_fragment_1

>  <triplet_in_target>  (1) 
LEUA28PHEA34VALA45

$$$$
FRASE_2BUU_4NC_fragment_1_0_SERA129GLNA151LEUA157
     RDKit          3D

 11 11  0  0  0  0  0  0  0  0999 V2000
   25.3450    1.6350   90.8550 C   0  0  0  0  0  0  0  0  0  0  0  0
   25.3050    1.0240   92.0910 C   0  0  0  0  0  0  0  0  0  0  0  0
   24.2160    1.1900   92.9210 C   0  0  0  0  0  0  0  0  0  0  0  0
   23.1620    1.9760   92.5080 C   0  0  0  0  0  0  0  0  0  0  0  0
   23.1920    2.5950   91.2710 C   0  0  0  0  0  0  0  0  0  0  0  0
   24.2870    2.4280   90.4430 C   0  0  0  0  0  0  0  0  0  0  0  0
   26.4340    1.4550   90.0270 O   0  0  0  0  0  0  0  0  0  0  0  0
   26.3610    0.2310   92.4950 O   0  0  0  0  0  0  0  0  0  0  0  0
   22.0050    2.1510   93.3750 N   0  0  0  0  0  0  0  0  0  0  0  0
   21.7240    1.2830   94.2220 O   0  0  0  0  0  0  0  0  0  0  0  0
   21.2870    3.1710   93.2400 O   0  0  0  0  0  0  0  0  0  0  0  0
  1  2  2  0
  1  6  1  0
  1  7  1  0
  2  3  1  0
  2  8  1  0
  3  4  2  0
  4  5  1  0
  4  9  1  0
  5  6  2  0
  9 10  2  0
  9 11  1  0
M  CHG  2   9   1  11  -1
M  END
>  <PDBID_FRAGID>  (1) 
FRASE_2BUU_4NC_fragment_1

>  <triplet_in_target>  (1) 
SERA129GLNA151LEUA157

$$$$
FRASE_1PBF_BHA_fragment_1_0_ARGA32LEUA38LEUA49
     RDKit          3D

 11 11  0  0  0  0  0  0  0  0999 V2000
   -3.8910   -1.9830   52.8340 C   0  0  0  0  0  0  0  0  0  0  0  0
   -4.8200   -1.3170   52.3350 O   0  0  0  0  0  0  0  0  0  0  0  0
   -3.6370   -1.9160   54.0490 O   0  0  0  0  0  0  0  0  0  0  0  0
   -3.0680   -2.8250   52.0590 C   0  0  0  0  0  0  0  0  0  0  0  0
   -3.4500   -3.0710   50.7290 C   0  0  0  0  0  0  0  0  0  0  0  0
   -2.7990   -4.0070   49.9540 C   0  0  0  0  0  0  0  0  0  0  0  0
   -1.7270   -4.7350   50.4780 C   0  0  0  0  0  0  0  0  0  0  0  0
   -1.3090   -4.5010   51.8160 C   0  0  0  0  0  0  0  0  0  0  0  0
   -1.9820   -3.5590   52.5890 C   0  0  0  0  0  0  0  0  0  0  0  0
   -4.3580   -2.4240   50.0640 O   0  0  0  0  0  0  0  0  0  0  0  0
   -1.1580   -5.6580   49.6810 N   0  0  0  0  0  0  0  0  0  0  0  0
  1  2  2  0
  1  3  1  0
  1  4  1  0
  4  5  2  0
  4  9  1  0
  5  6  1  0
  5 10  1  0
  6  7  2  0
  7  8  1  0
  7 11  1  0
  8  9  2  0
M  END
>  <PDBID_FRAGID>  (1) 
FRASE_1PBF_BHA_fragment_1

>  <triplet_in_target>  (1) 
ARGA32LEUA38LEUA49

$$$$
FRASE_3E85_BSU_fragment_8_0_PHEA69VALA76PHEA115
     RDKit          3D

 10 10  0  0  0  0  0  0  0  0999 V2000
   11.5760   -1.9430   81.0440 N   0  0  0  0  0  0  0  0  0  0  0  0
   12.9150   -2.0170   81.1250 C   0  0  0  0  0  0  0  0  0  0  0  0
   13.4170   -2.2550   79.8770 N   0  0  0  0  0  0  0  0  0  0  0  0
   13.5820   -1.8820   82.1500 O   0  0  0  0  0  0  0  0  0  0  0  0
   14.7190   -2.4420   79.3470 C   0  0  0  0  0  0  0  0  0  0  0  0
   14.8430   -2.3410   77.9770 C   0  0  0  0  0  0  0  0  0  0  0  0
   16.0650   -2.5220   77.3730 C   0  0  0  0  0  0  0  0  0  0  0  0
   17.1840   -2.8270   78.0970 C   0  0  0  0  0  0  0  0  0  0  0  0
   17.0650   -2.9440   79.4470 C   0  0  0  0  0  0  0  0  0  0  0  0
   15.8290   -2.7490   80.0710 C   0  0  0  0  0  0  0  0  0  0  0  0
  1  2  1  0
  2  3  1  0
  2  4  1  0
  3  5  1  0
  5  6  1  0
  5 10  1  0
  6  7  1  0
  7  8  1  0
  8  9  1  0
  9 10  1  0
M  END
>  <PDBID_FRAGID>  (1) 
FRASE_3E85_BSU_fragment_8

>  <triplet_in_target>  (1) 
PHEA69VALA76PHEA115

$$$$
FRASE_5SIP_JRL_fragment_2_0_ILEA106PHEA112ILEA177
     RDKit          3D

  5  5  0  0  0  0  0  0  0  0999 V2000
   19.2510   10.4960   71.6670 C   0  0  0  0  0  0  0  0  0  0  0  0
   17.2070    8.6890   69.5960 C   0  0  0  0  0  0  0  0  0  0  0  0
   17.8600    8.4670   71.0000 C   0  0  0  0  0  0  0  0  0  0  0  0
   18.1540    9.9180   71.0650 N   0  0  0  0  0  0  0  0  0  0  0  0
   17.8020   10.1280   69.6400 C   0  0  0  0  0  0  0  0  0  0  0  0
  1  4  1  0
  2  3  1  0
  2  5  1  0
  3  4  1  0
  4  5  1  0
M  END
>  <PDBID_FRAGID>  (1) 
FRASE_5SIP_JRL_fragment_2

>  <triplet_in_target>  (1) 
ILEA106PHEA112ILEA177

$$$$
FRASE_7YDX_3CI_fragment_3_0_ILEA106LEUA170ILEA177
     RDKit          3D

 10 11  0  0  0  0  0  0  0  0999 V2000
   18.9350   20.2620   76.5870 C   0  0  0  0  0  0  0  0  0  0  0  0
   16.3030   20.3530   75.7150 C   0  0  0  0  0  0  0  0  0  0  0  0
   16.6530   21.7680   78.9810 C   0  0  0  0  0  0  0  0  0  0  0  0
   17.8840   20.8200   77.3890 C   0  0  0  0  0  0  0  0  0  0  0  0
   18.6290   19.7210   75.3400 C   0  0  0  0  0  0  0  0  0  0  0  0
   17.2950   19.7960   74.8910 C   0  0  0  0  0  0  0  0  0  0  0  0
   16.1820   22.4250   80.2160 N   0  0  0  0  0  0  0  0  0  0  0  0
   15.8740   21.4560   77.9470 N   0  0  0  0  0  0  0  0  0  0  0  0
   16.6570   20.8450   76.9420 N   0  0  0  0  0  0  0  0  0  0  0  0
   17.8770   21.3730   78.6450 N   0  0  0  0  0  0  0  0  0  0  0  0
  1  4  1  0
  1  5  2  0
  2  6  2  0
  2  9  1  0
  3  7  1  0
  3  8  2  0
  3 10  1  0
  4  9  1  0
  4 10  2  0
  5  6  1  0
  8  9  1  0
M  END
>  <PDBID_FRAGID>  (1) 
FRASE_7YDX_3CI_fragment_3

>  <triplet_in_target>  (1) 
ILEA106LEUA170ILEA177

$$$$
FRASE_8C72_TW0_fragment_2_0_PHEA115ASPA120LEUA170
     RDKit          3D

  6  6  0  0  0  0  0  0  0  0999 V2000
    9.8230    8.5990   79.0270 C   0  0  0  0  0  0  0  0  0  0  0  0
    9.5070   10.9740   79.1230 C   0  0  0  0  0  0  0  0  0  0  0  0
   10.8470   11.1550   79.4090 C   0  0  0  0  0  0  0  0  0  0  0  0
   11.6800   10.0540   79.5060 C   0  0  0  0  0  0  0  0  0  0  0  0
   11.1660    8.7800   79.3110 C   0  0  0  0  0  0  0  0  0  0  0  0
    9.0220    9.6740   78.9340 N   0  0  0  0  0  0  0  0  0  0  0  0
  1  5  2  0
  1  6  1  0
  2  3  1  0
  2  6  2  0
  3  4  2  0
  4  5  1  0
M  END
>  <PDBID_FRAGID>  (1) 
FRASE_8C72_TW0_fragment_2

>  <triplet_in_target>  (1) 
PHEA115ASPA120LEUA170

$$$$
FRASE_3F28_S7B_fragment_2_0_HISA109GLUA172ILEA177
     RDKit          3D

  6  6  0  0  0  0  0  0  0  0999 V2000
   17.7440   21.1960   75.0750 O   0  0  0  0  0  0  0  0  0  0  0  0
   18.7230   20.4570   75.6300 C   0  0  0  0  0  0  0  0  0  0  0  0
   19.2290   20.7400   76.7060 O   0  0  0  0  0  0  0  0  0  0  0  0
   19.1640   19.2140   74.9240 C   0  0  2  0  0  0  0  0  0  0  0  0
   19.5390   19.2810   73.4400 C   0  0  0  0  0  0  0  0  0  0  0  0
   18.1570   18.7220   73.8890 C   0  0  0  0  0  0  0  0  0  0  0  0
  1  2  1  0
  2  3  2  0
  4  2  1  6
  4  5  1  0
  4  6  1  0
  5  6  1  0
M  END
>  <PDBID_FRAGID>  (1) 
FRASE_3F28_S7B_fragment_2

>  <triplet_in_target>  (1) 
HISA109GLUA172ILEA177

$$$$
FRASE_5TZ1_VT1_fragment_3_0_TYRA110PHEA115LEUA170
     RDKit          3D

 10 10  0  0  0  0  0  0  0  0999 V2000
   20.0570   13.3460   72.9160 C   0  0  1  0  0  0  0  0  0  0  0  0
   19.7960   12.0470   72.9300 F   0  0  0  0  0  0  0  0  0  0  0  0
   19.3800   13.9270   73.9000 F   0  0  0  0  0  0  0  0  0  0  0  0
   21.5560   13.5480   73.1710 C   0  0  0  0  0  0  0  0  0  0  0  0
   22.3370   12.8980   72.0570 C   0  0  0  0  0  0  0  0  0  0  0  0
   23.7450   12.9880   72.5300 N   0  0  0  0  0  0  0  0  0  0  0  0
   24.4900   12.1130   72.6260 N   0  0  0  0  0  0  0  0  0  0  0  0
   25.5770   12.4680   72.9710 N   0  0  0  0  0  0  0  0  0  0  0  0
   25.6500   13.6080   73.0970 N   0  0  0  0  0  0  0  0  0  0  0  0
   24.4440   14.0810   72.8090 C   0  0  0  0  0  0  0  0  0  0  0  0
  1  2  1  1
  1  3  1  0
  1  4  1  0
  4  5  1  0
  5  6  1  0
  6  7  1  0
  6 10  1  0
  7  8  2  0
  8  9  1  0
  9 10  2  0
M  END
>  <PDBID_FRAGID>  (1) 
FRASE_5TZ1_VT1_fragment_3

>  <triplet_in_target>  (1) 
TYRA110PHEA115LEUA170

$$$$
FRASE_3BU1_HSM_fragment_1_0_ILEA114ASPA120LEUA170
     RDKit          3D

  8  8  0  0  0  0  0  0  0  0999 V2000
   14.6320    9.0140   80.7840 N   0  0  0  0  0  0  0  0  0  0  0  0
   13.2850    9.3410   80.3250 C   0  0  0  0  0  0  0  0  0  0  0  0
   12.3960    9.6490   81.5220 C   0  0  0  0  0  0  0  0  0  0  0  0
   10.9540    9.8570   81.1060 C   0  0  0  0  0  0  0  0  0  0  0  0
   10.1530    8.9430   80.5030 N   0  0  0  0  0  0  0  0  0  0  0  0
   10.2130   11.0140   81.2750 C   0  0  0  0  0  0  0  0  0  0  0  0
    8.9470    9.5110   80.3020 C   0  0  0  0  0  0  0  0  0  0  0  0
    8.9810   10.7760   80.7750 N   0  0  0  0  0  0  0  0  0  0  0  0
  1  2  1  0
  2  3  1  0
  3  4  1  0
  4  5  1  0
  4  6  2  0
  5  7  2  0
  6  8  1  0
  7  8  1  0
M  END
>  <PDBID_FRAGID>  (1) 
FRASE_3BU1_HSM_fragment_1

>  <triplet_in_target>  (1) 
ILEA114ASPA120LEUA170

$$$$
FRASE_5N3F_463_fragment_1_0_ILEA58ILEA73ASPA84
     RDKit          3D

 12 12  0  0  0  0  0  0  0  0999 V2000
   11.3750   -4.1580   76.1230 C   0  0  0  0  0  0  0  0  0  0  0  0
   10.3600   -3.5440   76.8350 C   0  0  0  0  0  0  0  0  0  0  0  0
    9.0390   -3.6360   76.4170 C   0  0  0  0  0  0  0  0  0  0  0  0
    7.2460   -1.9130   76.6270 N   0  0  0  0  0  0  0  0  0  0  0  0
    7.9250   -3.0730   77.2560 C   0  0  0  0  0  0  0  0  0  0  0  0
    8.7580   -4.3360   75.2510 C   0  0  0  0  0  0  0  0  0  0  0  0
   11.4920   -6.0710   72.5390 O   0  0  0  0  0  0  0  0  0  0  0  0
   10.2740   -6.1920   72.4470 C   0  0  0  0  0  0  0  0  0  0  0  0
    9.6210   -6.8630   71.2700 C   0  0  0  0  0  0  0  0  0  0  0  0
    9.4260   -5.7200   73.3820 N   0  0  0  0  0  0  0  0  0  0  0  0
    9.7640   -4.9720   74.5390 C   0  0  0  0  0  0  0  0  0  0  0  0
   11.0810   -4.8830   74.9810 C   0  0  0  0  0  0  0  0  0  0  0  0
  1  2  2  0
  1 12  1  0
  2  3  1  0
  3  5  1  0
  3  6  2  0
  4  5  1  0
  6 11  1  0
  7  8  2  0
  8  9  1  0
  8 10  1  0
 10 11  1  0
 11 12  2  0
M  END
>  <PDBID_FRAGID>  (1) 
FRASE_5N3F_463_fragment_1

>  <triplet_in_target>  (1) 
ILEA58ILEA73ASPA84

$$$$
FRASE_5DXT_5H5_fragment_2_0_ILEA58ILEA73ASPA84
     RDKit          3D

  6  6  0  0  0  0  0  0  0  0999 V2000
    9.1230   -5.3020   72.5980 C   0  0  0  0  0  0  0  0  0  0  0  0
    9.8170   -4.7830   76.0890 C   0  0  0  0  0  0  0  0  0  0  0  0
    8.5670   -3.8060   74.0660 C   0  0  0  0  0  0  0  0  0  0  0  0
    8.4470   -4.1830   72.8120 N   0  0  0  0  0  0  0  0  0  0  0  0
    9.6960   -5.6680   73.7110 N   0  0  0  0  0  0  0  0  0  0  0  0
    9.3640   -4.7180   74.6900 N   0  0  0  0  0  0  0  0  0  0  0  0
  1  4  1  0
  1  5  2  0
  2  6  1  0
  3  4  2  0
  3  6  1  0
  5  6  1  0
M  END
>  <PDBID_FRAGID>  (1) 
FRASE_5DXT_5H5_fragment_2

>  <triplet_in_target>  (1) 
ILEA58ILEA73ASPA84

$$$$
FRASE_5MQT_STI_fragment_3_0_VALA76ALAA111PHEA117
     RDKit          3D

 11 11  0  0  0  0  0  0  0  0999 V2000
   11.8690    8.8030   80.0590 N   0  0  0  0  0  0  0  0  0  0  0  0
   10.5350    8.5950   79.7300 C   0  0  0  0  0  0  0  0  0  0  0  0
    9.8550    9.6140   79.0680 C   0  0  0  0  0  0  0  0  0  0  0  0
    8.5550    9.3580   78.6540 C   0  0  0  0  0  0  0  0  0  0  0  0
    7.9370    8.1470   78.8890 C   0  0  0  0  0  0  0  0  0  0  0  0
    8.6130    7.1480   79.5600 C   0  0  0  0  0  0  0  0  0  0  0  0
    9.9150    7.3740   79.9820 C   0  0  0  0  0  0  0  0  0  0  0  0
    7.9800    5.9120   79.8120 N   0  0  0  0  0  0  0  0  0  0  0  0
    6.7630    5.5150   79.3810 C   0  0  0  0  0  0  0  0  0  0  0  0
    5.9990    6.2460   78.7600 O   0  0  0  0  0  0  0  0  0  0  0  0
   10.4910   10.9530   78.8150 C   0  0  0  0  0  0  0  0  0  0  0  0
  1  2  1  0
  2  3  2  0
  2  7  1  0
  3  4  1  0
  3 11  1  0
  4  5  2  0
  5  6  1  0
  6  7  2  0
  6  8  1  0
  8  9  1  0
  9 10  2  0
M  END
>  <PDBID_FRAGID>  (1) 
FRASE_5MQT_STI_fragment_3

>  <triplet_in_target>  (1) 
VALA76ALAA111PHEA117

$$$$
FRASE_5MQT_STI_fragment_1_0_LEUA59PHEA69ARGA75
     RDKit          3D

  6  6  0  0  0  0  0  0  0  0999 V2000
    8.3230   -0.3310   64.3420 C   0  0  0  0  0  0  0  0  0  0  0  0
    7.7140   -0.8220   65.4780 C   0  0  0  0  0  0  0  0  0  0  0  0
    8.4580   -1.0160   66.6310 C   0  0  0  0  0  0  0  0  0  0  0  0
    9.8020   -0.6780   66.5730 C   0  0  0  0  0  0  0  0  0  0  0  0
   10.4100   -0.1980   65.4850 N   0  0  0  0  0  0  0  0  0  0  0  0
    9.6640   -0.0370   64.3920 C   0  0  0  0  0  0  0  0  0  0  0  0
  1  2  2  0
  1  6  1  0
  2  3  1  0
  3  4  2  0
  4  5  1  0
  5  6  2  0
M  END
>  <PDBID_FRAGID>  (1) 
FRASE_5MQT_STI_fragment_1

>  <triplet_in_target>  (1) 
LEUA59PHEA69ARGA75

$$$$
FRASE_4XP6_B40_fragment_1_0_ILEA156ILEA162PHEA173
     RDKit          3D

 10 10  0  0  0  0  0  0  0  0999 V2000
   29.1050   17.7500   83.8120 N   0  0  0  0  0  0  0  0  0  0  0  0
   28.8190   17.9170   82.3750 C   0  0  1  0  0  0  0  0  0  0  0  0
   29.3730   19.2560   81.9050 C   0  0  0  0  0  0  0  0  0  0  0  0
   29.4440   16.7640   81.5970 C   0  0  0  0  0  0  0  0  0  0  0  0
   28.8260   16.6770   80.2210 C   0  0  0  0  0  0  0  0  0  0  0  0
   29.4490   15.9300   79.2270 C   0  0  0  0  0  0  0  0  0  0  0  0
   27.6300   17.3340   79.9490 C   0  0  0  0  0  0  0  0  0  0  0  0
   28.8820   15.8470   77.9600 C   0  0  0  0  0  0  0  0  0  0  0  0
   27.0630   17.2510   78.6830 C   0  0  0  0  0  0  0  0  0  0  0  0
   27.6890   16.5070   77.6880 C   0  0  0  0  0  0  0  0  0  0  0  0
  1  2  1  0
  2  3  1  6
  2  4  1  0
  4  5  1  0
  5  6  2  0
  5  7  1  0
  6  8  1  0
  7  9  2  0
  8 10  2  0
  9 10  1  0
M  END
>  <PDBID_FRAGID>  (1) 
FRASE_4XP6_B40_fragment_1

>  <triplet_in_target>  (1) 
ILEA156ILEA162PHEA173

$$$$
FRASE_5JMZ_AYX_fragment_1_0_ILEA156ILEA162ILEA168
     RDKit          3D

 13 13  0  0  0  0  0  0  0  0999 V2000
   22.4270    7.3080   92.4640 C   0  0  0  0  0  0  0  0  0  0  0  0
   22.0910    4.6110   93.3510 N   0  0  0  0  0  0  0  0  0  0  0  0
   19.9380    5.9590   92.4400 O   0  0  0  0  0  0  0  0  0  0  0  0
   21.5510    5.7240   92.2360 S   0  0  0  0  0  0  0  0  0  0  0  0
   22.5590    7.8380   93.7300 C   0  0  0  0  0  0  0  0  0  0  0  0
   23.2210    9.0450   93.9120 C   0  0  0  0  0  0  0  0  0  0  0  0
   23.7470    9.7100   92.8360 C   0  0  0  0  0  0  0  0  0  0  0  0
   23.6110    9.1760   91.5640 C   0  0  0  0  0  0  0  0  0  0  0  0
   22.9450    7.9660   91.3900 C   0  0  0  0  0  0  0  0  0  0  0  0
   24.4380   10.9800   93.0460 N   0  0  0  0  0  0  0  0  0  0  0  0
   25.6020   11.3820   92.2670 C   0  0  0  0  0  0  0  0  0  0  0  0
   26.0410   10.6780   91.4180 O   0  0  0  0  0  0  0  0  0  0  0  0
   26.2380   12.7100   92.5620 N   0  0  0  0  0  0  0  0  0  0  0  0
  1  4  1  0
  1  5  2  0
  1  9  1  0
  4  2  1  1
  3  4  2  0
  5  6  1  0
  6  7  2  0
  7  8  1  0
  7 10  1  0
  8  9  2  0
 10 11  1  0
 11 12  2  0
 11 13  1  0
M  END
>  <PDBID_FRAGID>  (1) 
FRASE_5JMZ_AYX_fragment_1

>  <triplet_in_target>  (1) 
ILEA156ILEA162ILEA168

$$$$
FRASE_8CAP_U4O_fragment_3_0_LEUA64ILEA73PHEA98
     RDKit          3D

  7  7  0  0  0  0  0  0  0  0999 V2000
   12.3910   -1.7320   77.0670 C   0  0  0  0  0  0  0  0  0  0  0  0
   12.7440   -2.3670   78.2720 C   0  0  0  0  0  0  0  0  0  0  0  0
   11.8200   -3.1630   78.9670 C   0  0  0  0  0  0  0  0  0  0  0  0
   12.1880   -3.7670   80.1710 C   0  0  0  0  0  0  0  0  0  0  0  0
   13.4670   -3.5800   80.7000 C   0  0  0  0  0  0  0  0  0  0  0  0
   14.3680   -2.7780   80.0070 C   0  0  0  0  0  0  0  0  0  0  0  0
   13.9790   -2.1690   78.7980 N   0  0  0  0  0  0  0  0  0  0  0  0
  1  2  1  0
  2  3  2  0
  2  7  1  0
  3  4  1  0
  4  5  2  0
  5  6  1  0
  6  7  2  0
M  END
>  <PDBID_FRAGID>  (1) 
FRASE_8CAP_U4O_fragment_3

>  <triplet_in_target>  (1) 
LEUA64ILEA73PHEA98

$$$$
FRASE_5M8G_918_fragment_2_0_ARGA32LEUA38VALA45
     RDKit          3D

 11 11  0  0  0  0  0  0  0  0999 V2000
   -0.9340   -7.5000   50.3080 F   0  0  0  0  0  0  0  0  0  0  0  0
   -1.0790   -6.4380   50.9810 C   0  0  1  0  0  0  0  0  0  0  0  0
   -0.7150   -6.6600   52.1920 F   0  0  0  0  0  0  0  0  0  0  0  0
   -0.2510   -5.5610   50.4680 F   0  0  0  0  0  0  0  0  0  0  0  0
   -2.4230   -5.9820   50.9250 C   0  0  0  0  0  0  0  0  0  0  0  0
   -2.7540   -4.9040   50.1070 C   0  0  0  0  0  0  0  0  0  0  0  0
   -4.0470   -4.4300   50.0310 C   0  0  0  0  0  0  0  0  0  0  0  0
   -4.3400   -3.4130   49.2460 N   0  0  0  0  0  0  0  0  0  0  0  0
   -5.0160   -4.9910   50.7290 N   0  0  0  0  0  0  0  0  0  0  0  0
   -4.7460   -6.0600   51.5490 C   0  0  0  0  0  0  0  0  0  0  0  0
   -3.4620   -6.5640   51.6700 C   0  0  0  0  0  0  0  0  0  0  0  0
  2  1  1  6
  2  3  1  0
  2  4  1  0
  2  5  1  0
  5  6  2  0
  5 11  1  0
  6  7  1  0
  7  8  1  0
  7  9  2  0
  9 10  1  0
 10 11  2  0
M  END
>  <PDBID_FRAGID>  (1) 
FRASE_5M8G_918_fragment_2

>  <triplet_in_target>  (1) 
ARGA32LEUA38VALA45

$$$$
FRASE_3R7M_SUZ_fragment_2_0_PHEA69PHEA115ASNA133
     RDKit          3D

 16 17  0  0  0  0  0  0  0  0999 V2000
   14.7690   -3.8250   82.7930 C   0  0  0  0  0  0  0  0  0  0  0  0
   14.4340   -3.2410   81.5420 C   0  0  0  0  0  0  0  0  0  0  0  0
   15.0140   -3.4340   80.2670 C   0  0  0  0  0  0  0  0  0  0  0  0
   16.1190   -4.1550   79.8070 C   0  0  0  0  0  0  0  0  0  0  0  0
   16.4470   -4.1480   78.4440 C   0  0  0  0  0  0  0  0  0  0  0  0
   15.6740   -3.4210   77.5560 C   0  0  0  0  0  0  0  0  0  0  0  0
   15.9910   -3.3910   76.2560 F   0  0  0  0  0  0  0  0  0  0  0  0
   14.5660   -2.6830   77.9990 C   0  0  0  0  0  0  0  0  0  0  0  0
   14.2300   -2.6870   79.3420 C   0  0  0  0  0  0  0  0  0  0  0  0
   13.1710   -2.0620   80.0280 C   0  0  0  0  0  0  0  0  0  0  0  0
   12.1650   -1.0590   79.4610 C   0  0  0  0  0  0  0  0  0  0  0  0
   10.9370   -1.5820   78.7350 C   0  0  0  0  0  0  0  0  0  0  0  0
   11.0860   -2.5360   77.9450 O   0  0  0  0  0  0  0  0  0  0  0  0
    9.8670   -0.9410   78.9690 O   0  0  0  0  0  0  0  0  0  0  0  0
   13.3120   -2.4000   81.3720 C   0  0  0  0  0  0  0  0  0  0  0  0
   12.3430   -1.9100   82.4890 C   0  0  0  0  0  0  0  0  0  0  0  0
  1  2  2  0
  2  3  1  0
  2 15  1  0
  3  4  2  0
  3  9  1  0
  4  5  1  0
  5  6  2  0
  6  7  1  0
  6  8  1  0
  8  9  2  0
  9 10  1  0
 10 11  1  0
 10 15  2  0
 11 12  1  0
 12 13  2  0
 12 14  1  0
 15 16  1  0
M  END
>  <PDBID_FRAGID>  (1) 
FRASE_3R7M_SUZ_fragment_2

>  <triplet_in_target>  (1) 
PHEA69PHEA115ASNA133

$$$$
FRASE_6VUW_RNM_fragment_2_0_PHEA69PHEA115ASNA133
     RDKit          3D

 17 19  0  0  0  0  0  0  0  0999 V2000
   14.1040   -3.0420   83.1680 N   0  0  0  0  0  0  0  0  0  0  0  0
   15.2330   -2.2500   82.7880 C   0  0  0  0  0  0  0  0  0  0  0  0
   15.5490   -1.2330   83.5470 N   0  0  0  0  0  0  0  0  0  0  0  0
   16.5750   -0.4230   83.3330 C   0  0  0  0  0  0  0  0  0  0  0  0
   16.7950    0.9040   84.5640 S   0  0  0  0  0  0  0  0  0  0  0  0
   15.3390    1.2320   85.6790 C   0  0  0  0  0  0  0  0  0  0  0  0
   17.3660   -0.6060   82.2670 N   0  0  0  0  0  0  0  0  0  0  0  0
   17.1060   -1.6470   81.4110 C   0  0  0  0  0  0  0  0  0  0  0  0
   16.0320   -2.5060   81.6620 C   0  0  0  0  0  0  0  0  0  0  0  0
   15.8700   -3.6330   80.6400 C   0  0  0  0  0  0  0  0  0  0  0  0
   16.8660   -3.5330   79.6430 C   0  0  0  0  0  0  0  0  0  0  0  0
   16.9390   -4.5500   78.4880 C   0  0  0  0  0  0  0  0  0  0  0  0
   16.2690   -5.8990   78.8430 C   0  0  2  0  0  0  0  0  0  0  0  0
   15.9620   -6.5730   77.5140 C   0  0  0  0  0  0  0  0  0  0  0  0
   14.9240   -5.7540   79.5670 C   0  0  0  0  0  0  0  0  0  0  0  0
   14.8180   -4.7060   80.6500 C   0  0  0  0  0  0  0  0  0  0  0  0
   17.8300   -2.1970   79.9890 S   0  0  0  0  0  0  0  0  0  0  0  0
  1  2  1  0
  2  3  2  0
  2  9  1  0
  3  4  1  0
  4  5  1  0
  4  7  2  0
  5  6  1  0
  7  8  1  0
  8  9  2  0
  8 17  1  0
  9 10  1  0
 10 11  2  0
 10 16  1  0
 11 12  1  0
 11 17  1  0
 12 13  1  0
 13 14  1  6
 13 15  1  0
 15 16  1  0
M  END
>  <PDBID_FRAGID>  (1) 
FRASE_6VUW_RNM_fragment_2

>  <triplet_in_target>  (1) 
PHEA69PHEA115ASNA133

$$$$
FRASE_5WVD_7UX_fragment_2_0_PHEA55LEUA64ILEA73
     RDKit          3D

  6  6  0  0  0  0  0  0  0  0999 V2000
   13.9670   -6.1600   70.9790 C   0  0  0  0  0  0  0  0  0  0  0  0
   14.1000   -4.8340   71.3280 C   0  0  0  0  0  0  0  0  0  0  0  0
   16.1070   -5.9320   70.4230 C   0  0  0  0  0  0  0  0  0  0  0  0
   15.0910   -6.7730   70.4770 N   0  0  0  0  0  0  0  0  0  0  0  0
   17.3720   -6.2960   69.9510 N   0  0  0  0  0  0  0  0  0  0  0  0
   15.7140   -4.3550   71.0000 S   0  0  0  0  0  0  0  0  0  0  0  0
  1  2  2  0
  1  4  1  0
  2  6  1  0
  3  4  2  0
  3  5  1  0
  3  6  1  0
M  END
>  <PDBID_FRAGID>  (1) 
FRASE_5WVD_7UX_fragment_2

>  <triplet_in_target>  (1) 
PHEA55LEUA64ILEA73

$$$$
FRASE_3VIP_ONB_fragment_1_0_ALAA30GLUA36SERA48
     RDKit          3D

 12 12  0  0  0  0  0  0  0  0999 V2000
   -2.8880   -0.7980   51.2460 C   0  0  1  0  0  0  0  0  0  0  0  0
   -2.9770   -1.9570   50.4250 O   0  0  0  0  0  0  0  0  0  0  0  0
   -1.3980   -0.5320   51.5120 C   0  0  2  0  0  0  0  0  0  0  0  0
   -0.8130   -1.4390   52.4620 O   0  0  0  0  0  0  0  0  0  0  0  0
   -1.0890    0.9160   51.8880 C   0  0  1  0  0  0  0  0  0  0  0  0
    0.3320    1.0840   51.7220 O   0  0  0  0  0  0  0  0  0  0  0  0
   -1.9060    1.8530   50.9970 C   0  0  2  0  0  0  0  0  0  0  0  0
   -1.6240    3.2150   51.3400 O   0  0  0  0  0  0  0  0  0  0  0  0
   -3.3940    1.5220   51.1460 C   0  0  2  0  0  0  0  0  0  0  0  0
   -3.5470    0.2480   50.5230 O   0  0  0  0  0  0  0  0  0  0  0  0
   -4.3630    2.4620   50.4410 C   0  0  0  0  0  0  0  0  0  0  0  0
   -4.3060    2.1950   49.0370 O   0  0  0  0  0  0  0  0  0  0  0  0
  1  2  1  6
  1  3  1  0
  1 10  1  0
  3  4  1  1
  3  5  1  0
  5  6  1  6
  5  7  1  0
  7  8  1  1
  7  9  1  0
  9 10  1  0
  9 11  1  6
 11 12  1  0
M  END
>  <PDBID_FRAGID>  (1) 
FRASE_3VIP_ONB_fragment_1

>  <triplet_in_target>  (1) 
ALAA30GLUA36SERA48

$$$$
FRASE_7KI9_WFJ_fragment_2_0_LEUA28PHEA34VALA45
     RDKit          3D

  5  5  0  0  0  0  0  0  0  0999 V2000
   -1.3930    0.0440   51.0680 C   0  0  0  0  0  0  0  0  0  0  0  0
   -1.2850   -1.4090   51.4490 C   0  0  1  0  0  0  0  0  0  0  0  0
   -1.2300   -2.4600   50.2960 C   0  0  0  0  0  0  0  0  0  0  0  0
    0.1790   -1.8370   51.7930 C   0  0  0  0  0  0  0  0  0  0  0  0
    0.2370   -2.3420   50.4010 N   0  0  0  0  0  0  0  0  0  0  0  0
  2  1  1  6
  2  3  1  0
  2  4  1  0
  3  5  1  0
  4  5  1  0
M  END
>  <PDBID_FRAGID>  (1) 
FRASE_7KI9_WFJ_fragment_2

>  <triplet_in_target>  (1) 
LEUA28PHEA34VALA45

$$$$
FRASE_7D1E_AHN_fragment_1_0_VALA76PHEA115ASPA118
     RDKit          3D

 11 11  0  0  0  0  0  0  0  0999 V2000
   13.5330   -5.8950   79.4760 C   0  0  0  0  0  0  0  0  0  0  0  0
   12.6040   -6.6900   79.5720 O   0  0  0  0  0  0  0  0  0  0  0  0
   14.6680   -5.8750   80.5180 C   0  0  0  0  0  0  0  0  0  0  0  0
   13.6290   -5.0310   78.4670 N   0  0  0  0  0  0  0  0  0  0  0  0
   12.5770   -4.9740   77.4540 C   0  0  0  0  0  0  0  0  0  0  0  0
   13.0660   -4.2180   76.2090 C   0  0  0  0  0  0  0  0  0  0  0  0
   12.3260   -2.9270   76.2400 C   0  0  0  0  0  0  0  0  0  0  0  0
   11.0540   -2.7850   75.8990 C   0  0  0  0  0  0  0  0  0  0  0  0
   12.7920   -1.7670   76.6910 N   0  0  0  0  0  0  0  0  0  0  0  0
   11.7820   -0.9010   76.5670 C   0  0  0  0  0  0  0  0  0  0  0  0
   10.6950   -1.5120   76.0990 N   0  0  0  0  0  0  0  0  0  0  0  0
  1  2  2  0
  1  3  1  0
  1  4  1  0
  4  5  1  0
  5  6  1  0
  6  7  1  0
  7  8  2  0
  7  9  1  0
  8 11  1  0
  9 10  2  0
 10 11  1  0
M  END
>  <PDBID_FRAGID>  (1) 
FRASE_7D1E_AHN_fragment_1

>  <triplet_in_target>  (1) 
VALA76PHEA115ASPA118

$$$$
FRASE_6T5C_MJT_fragment_1_0_PHEA34GLNA42VALA45
     RDKit          3D

 18 20  0  0  0  0  0  0  0  0999 V2000
   -0.8160   -0.9120   47.5420 O   0  0  0  0  0  0  0  0  0  0  0  0
    0.3400   -0.5170   48.3100 S   0  0  2  0  0  0  0  0  0  0  0  0
    0.0330    0.3510   49.5930 O   0  0  0  0  0  0  0  0  0  0  0  0
    1.3170    0.3480   47.4190 N   0  0  0  0  0  0  0  0  0  0  0  0
    1.1550   -1.9440   48.9030 C   0  0  0  0  0  0  0  0  0  0  0  0
    2.3850   -2.4080   48.2670 C   0  0  0  0  0  0  0  0  0  0  0  0
    3.0030   -1.9780   47.1210 C   0  0  0  0  0  0  0  0  0  0  0  0
    4.2790   -2.3410   46.8370 C   0  0  0  0  0  0  0  0  0  0  0  0
    4.9570   -3.2080   47.5050 C   0  0  0  0  0  0  0  0  0  0  0  0
    4.6450   -3.6850   48.7310 C   0  0  0  0  0  0  0  0  0  0  0  0
    3.2840   -3.2980   49.0740 C   0  0  0  0  0  0  0  0  0  0  0  0
    2.7920   -3.6940   50.2480 C   0  0  0  0  0  0  0  0  0  0  0  0
    1.4990   -3.4460   50.7280 C   0  0  0  0  0  0  0  0  0  0  0  0
    0.7310   -2.5350   50.0840 C   0  0  0  0  0  0  0  0  0  0  0  0
    1.0010   -4.1220   51.9310 C   0  0  0  0  0  0  0  0  0  0  0  0
   -0.2840   -3.8850   52.4340 C   0  0  0  0  0  0  0  0  0  0  0  0
   -1.1330   -2.9850   51.6720 C   0  0  0  0  0  0  0  0  0  0  0  0
   -0.6340   -2.3030   50.6110 C   0  0  0  0  0  0  0  0  0  0  0  0
  1  2  2  0
  2  3  2  0
  2  4  1  6
  2  5  1  0
  5  6  2  0
  5 14  1  0
  6  7  1  0
  6 11  1  0
  7  8  2  0
  8  9  1  0
  9 10  2  0
 10 11  1  0
 11 12  2  0
 12 13  1  0
 13 14  2  0
 13 15  1  0
 14 18  1  0
 15 16  2  0
 16 17  1  0
 17 18  2  0
M  END
>  <PDBID_FRAGID>  (1) 
FRASE_6T5C_MJT_fragment_1

>  <triplet_in_target>  (1) 
PHEA34GLNA42VALA45

$$$$
FRASE_1M2T_ADE_fragment_1_0_ILEA156ARGA164ILEA168
     RDKit          3D

 10 11  0  0  0  0  0  0  0  0999 V2000
   24.6980    8.7720   92.7370 N   0  0  0  0  0  0  0  0  0  0  0  0
   25.2880    8.2820   93.8890 C   0  0  0  0  0  0  0  0  0  0  0  0
   26.4960    8.6630   94.0690 N   0  0  0  0  0  0  0  0  0  0  0  0
   26.7260    9.4740   92.9510 C   0  0  0  0  0  0  0  0  0  0  0  0
   27.8560   10.1990   92.5730 C   0  0  0  0  0  0  0  0  0  0  0  0
   28.9890   10.1990   93.2600 N   0  0  0  0  0  0  0  0  0  0  0  0
   27.7600   10.9270   91.4420 N   0  0  0  0  0  0  0  0  0  0  0  0
   26.5840   10.8850   90.8100 C   0  0  0  0  0  0  0  0  0  0  0  0
   25.4400   10.2690   91.0160 N   0  0  0  0  0  0  0  0  0  0  0  0
   25.6220    9.5570   92.1570 C   0  0  0  0  0  0  0  0  0  0  0  0
  1  2  1  0
  1 10  1  0
  2  3  2  0
  3  4  1  0
  4  5  1  0
  4 10  2  0
  5  6  1  0
  5  7  2  0
  7  8  1  0
  8  9  2  0
  9 10  1  0
M  END
>  <PDBID_FRAGID>  (1) 
FRASE_1M2T_ADE_fragment_1

>  <triplet_in_target>  (1) 
ILEA156ARGA164ILEA168

$$$$
FRASE_7ZZU_KKI_fragment_4_0_PHEA115ASPA120LEUA170
     RDKit          3D

  7  7  0  0  0  0  0  0  0  0999 V2000
   10.4470   11.1320   80.3250 C   0  0  0  0  0  0  0  0  0  0  0  0
   10.0590   11.2180   81.7890 C   0  0  0  0  0  0  0  0  0  0  0  0
    8.3440    9.5630   81.4800 C   0  0  0  0  0  0  0  0  0  0  0  0
    8.7690    9.3570   80.0340 C   0  0  0  0  0  0  0  0  0  0  0  0
   10.9980    9.1440   78.9930 C   0  0  0  0  0  0  0  0  0  0  0  0
   10.1520    9.7930   79.8090 N   0  0  0  0  0  0  0  0  0  0  0  0
    8.6240   10.9330   81.9270 N   0  0  0  0  0  0  0  0  0  0  0  0
  1  2  1  0
  1  6  1  0
  2  7  1  0
  3  4  1  0
  3  7  1  0
  4  6  1  0
  5  6  1  0
M  END
>  <PDBID_FRAGID>  (1) 
FRASE_7ZZU_KKI_fragment_4

>  <triplet_in_target>  (1) 
PHEA115ASPA120LEUA170

$$$$
FRASE_5G6I_M85_fragment_1_0_HISA31ALAA51PHEA91
     RDKit          3D

 13 14  0  0  0  0  0  0  0  0999 V2000
   -5.3360    3.6250   64.1550 N   0  0  0  0  0  0  0  0  0  0  0  0
   -5.0670    3.0930   65.3750 C   0  0  0  0  0  0  0  0  0  0  0  0
   -5.9710    2.2790   65.9770 N   0  0  0  0  0  0  0  0  0  0  0  0
   -3.8570    3.3800   66.0040 C   0  0  0  0  0  0  0  0  0  0  0  0
   -2.9460    4.2210   65.3810 C   0  0  0  0  0  0  0  0  0  0  0  0
   -3.2480    4.7540   64.1340 C   0  0  0  0  0  0  0  0  0  0  0  0
   -2.3460    5.5950   63.4920 C   0  0  0  0  0  0  0  0  0  0  0  0
   -2.6600    6.1240   62.2390 C   0  0  0  0  0  0  0  0  0  0  0  0
   -3.8680    5.8170   61.6110 C   0  0  0  0  0  0  0  0  0  0  0  0
   -4.7690    4.9730   62.2630 C   0  0  0  0  0  0  0  0  0  0  0  0
   -4.4600    4.4440   63.5210 C   0  0  0  0  0  0  0  0  0  0  0  0
   -4.1670    6.4020   60.2390 C   0  0  0  0  0  0  0  0  0  0  0  0
   -2.9570    6.3440   59.4580 O   0  0  0  0  0  0  0  0  0  0  0  0
  1  2  2  0
  1 11  1  0
  2  3  1  0
  2  4  1  0
  4  5  2  0
  5  6  1  0
  6  7  1  0
  6 11  2  0
  7  8  2  0
  8  9  1  0
  9 10  2  0
  9 12  1  0
 10 11  1  0
 12 13  1  0
M  END
>  <PDBID_FRAGID>  (1) 
FRASE_5G6I_M85_fragment_1

>  <triplet_in_target>  (1) 
HISA31ALAA51PHEA91

$$$$
FRASE_5EYM_5U5_fragment_1_0_LEUA29PHEA88LEUA95
     RDKit          3D

 18 19  0  0  0  0  0  0  0  0999 V2000
   -0.5840   10.7130   64.7600 C   0  0  0  0  0  0  0  0  0  0  0  0
   -1.6790    9.8900   64.5460 C   0  0  0  0  0  0  0  0  0  0  0  0
   -1.7450    9.0830   63.4260 C   0  0  0  0  0  0  0  0  0  0  0  0
   -3.6320    8.6920   64.5480 C   0  0  0  0  0  0  0  0  0  0  0  0
    2.4400   10.0530   61.0390 C   0  0  0  0  0  0  0  0  0  0  0  0
    4.3070   11.1510   60.3160 O   0  0  0  0  0  0  0  0  0  0  0  0
    3.5890   10.1780   60.1940 C   0  0  0  0  0  0  0  0  0  0  0  0
    3.9060    9.2130   59.2600 N   0  0  0  0  0  0  0  0  0  0  0  0
    5.0660    9.2690   58.3590 C   0  0  0  0  0  0  0  0  0  0  0  0
    4.9160   10.3600   57.3230 C   0  0  0  0  0  0  0  0  0  0  0  0
    1.4840    9.9620   61.7780 C   0  0  0  0  0  0  0  0  0  0  0  0
    0.3680    9.8920   62.6750 C   0  0  0  0  0  0  0  0  0  0  0  0
   -0.7350    9.0610   62.4720 C   0  0  0  0  0  0  0  0  0  0  0  0
   -2.9390    8.3330   63.4030 N   0  0  0  0  0  0  0  0  0  0  0  0
   -4.7110    8.2420   64.8680 O   0  0  0  0  0  0  0  0  0  0  0  0
   -2.8870    9.6760   65.3270 C   0  0  0  0  0  0  0  0  0  0  0  0
    0.4350   10.7020   63.8140 C   0  0  0  0  0  0  0  0  0  0  0  0
   -3.3190   10.2060   66.4970 C   0  0  0  0  0  0  0  0  0  0  0  0
  1  2  2  0
  1 17  1  0
  2  3  1  0
  2 16  1  0
  3 13  2  0
  3 14  1  0
  4 14  1  0
  4 15  2  0
  4 16  1  0
  5  7  1  0
  5 11  3  0
  6  7  2  0
  7  8  1  0
  8  9  1  0
  9 10  1  0
 11 12  1  0
 12 13  1  0
 12 17  2  0
 16 18  2  0
M  END
>  <PDBID_FRAGID>  (1) 
FRASE_5EYM_5U5_fragment_1

>  <triplet_in_target>  (1) 
LEUA29PHEA88LEUA95

$$$$
FRASE_6YYC_Q0Z_fragment_3_0_ILEA58ILEA73ASPA84
     RDKit          3D

  8  8  0  0  0  0  0  0  0  0999 V2000
   10.5040   -4.0540   73.1220 N   0  0  0  0  0  0  0  0  0  0  0  0
   10.6660   -5.3460   72.5200 C   0  0  0  0  0  0  0  0  0  0  0  0
   11.8690   -5.9400   72.5700 N   0  0  0  0  0  0  0  0  0  0  0  0
   12.0580   -7.1420   72.0360 C   0  0  0  0  0  0  0  0  0  0  0  0
   11.0870   -7.7540   71.4050 N   0  0  0  0  0  0  0  0  0  0  0  0
    9.8530   -7.2520   71.2800 C   0  0  0  0  0  0  0  0  0  0  0  0
    9.5970   -5.9650   71.8500 C   0  0  0  0  0  0  0  0  0  0  0  0
    8.0500   -5.1760   71.7880 Cl  0  0  0  0  0  0  0  0  0  0  0  0
  1  2  1  0
  2  3  2  0
  2  7  1  0
  3  4  1  0
  4  5  2  0
  5  6  1  0
  6  7  2  0
  7  8  1  0
M  END
>  <PDBID_FRAGID>  (1) 
FRASE_6YYC_Q0Z_fragment_3

>  <triplet_in_target>  (1) 
ILEA58ILEA73ASPA84

$$$$
FRASE_7CON_G56_fragment_1_0_PHEA55LEUA64ARGA72
     RDKit          3D

 11 11  0  0  0  0  0  0  0  0999 V2000
   16.3720   -8.8270   72.5290 O   0  0  0  0  0  0  0  0  0  0  0  0
   16.1700   -9.9280   71.9930 C   0  0  0  0  0  0  0  0  0  0  0  0
   16.0960  -10.9780   72.6590 O   0  0  0  0  0  0  0  0  0  0  0  0
   16.0170   -9.9890   70.4990 C   0  0  0  0  0  0  0  0  0  0  0  0
   14.5560   -9.8310   70.0900 C   0  0  0  0  0  0  0  0  0  0  0  0
   13.8730   -8.5350   70.5320 C   0  0  0  0  0  0  0  0  0  0  0  0
   14.2340   -7.3290   69.9550 C   0  0  0  0  0  0  0  0  0  0  0  0
   13.5850   -6.1540   70.3090 C   0  0  0  0  0  0  0  0  0  0  0  0
   12.5660   -6.1910   71.2510 C   0  0  0  0  0  0  0  0  0  0  0  0
   12.2060   -7.3810   71.8460 C   0  0  0  0  0  0  0  0  0  0  0  0
   12.8490   -8.5600   71.4830 C   0  0  0  0  0  0  0  0  0  0  0  0
  1  2  2  0
  2  3  1  0
  2  4  1  0
  4  5  1  0
  5  6  1  0
  6  7  2  0
  6 11  1  0
  7  8  1  0
  8  9  2  0
  9 10  1  0
 10 11  2  0
M  END
>  <PDBID_FRAGID>  (1) 
FRASE_7CON_G56_fragment_1

>  <triplet_in_target>  (1) 
PHEA55LEUA64ARGA72

$$$$
FRASE_4KAH_BYZ_fragment_1_0_GLUA158ARGA164ILEA168
     RDKit          3D

  6  6  0  0  0  0  0  0  0  0999 V2000
   24.9410    9.9580   90.1690 Br  0  0  0  0  0  0  0  0  0  0  0  0
   23.9370    8.7260   91.3830 C   0  0  0  0  0  0  0  0  0  0  0  0
   24.1980    7.3700   91.4590 C   0  0  0  0  0  0  0  0  0  0  0  0
   23.3120    6.9270   92.3810 N   0  0  0  0  0  0  0  0  0  0  0  0
   22.5340    8.0200   92.8420 N   0  0  0  0  0  0  0  0  0  0  0  0
   22.9300    9.1570   92.2140 C   0  0  0  0  0  0  0  0  0  0  0  0
  1  2  1  0
  2  3  1  0
  2  6  2  0
  3  4  2  0
  4  5  1  0
  5  6  1  0
M  END
>  <PDBID_FRAGID>  (1) 
FRASE_4KAH_BYZ_fragment_1

>  <triplet_in_target>  (1) 
GLUA158ARGA164ILEA168

$$$$
FRASE_3GUP_0PY_fragment_1_0_LEUA38ILEA58PHEA88
     RDKit          3D

  6  6  0  0  0  0  0  0  0  0999 V2000
    6.7700   -4.1910   59.0840 C   0  0  0  0  0  0  0  0  0  0  0  0
    7.1530   -2.9090   58.9130 N   0  0  0  0  0  0  0  0  0  0  0  0
    6.9650   -5.1630   58.0650 C   0  0  0  0  0  0  0  0  0  0  0  0
    7.5230   -4.7650   56.8720 C   0  0  0  0  0  0  0  0  0  0  0  0
    7.8720   -3.4410   56.7200 C   0  0  0  0  0  0  0  0  0  0  0  0
    7.7240   -2.5150   57.7450 C   0  0  0  0  0  0  0  0  0  0  0  0
  1  2  2  0
  1  3  1  0
  2  6  1  0
  3  4  2  0
  4  5  1  0
  5  6  2  0
M  END
>  <PDBID_FRAGID>  (1) 
FRASE_3GUP_0PY_fragment_1

>  <triplet_in_target>  (1) 
LEUA38ILEA58PHEA88

$$$$
FRASE_2WJ4_HQD_fragment_1_0_PHEA21ILEA27LEUA94
     RDKit          3D

 13 14  0  0  0  0  0  0  0  0999 V2000
   -0.0480    8.3830   64.7890 N   0  0  0  0  0  0  0  0  0  0  0  0
    0.0830    8.5110   66.1420 C   0  0  0  0  0  0  0  0  0  0  0  0
    0.8980    9.5890   66.6990 C   0  0  0  0  0  0  0  0  0  0  0  0
    1.6070   10.4280   65.8490 C   0  0  0  0  0  0  0  0  0  0  0  0
    2.1550   11.1180   63.6500 C   0  0  0  0  0  0  0  0  0  0  0  0
    2.0430   10.9610   62.2620 C   0  0  0  0  0  0  0  0  0  0  0  0
    1.2400    9.9180   61.7280 C   0  0  0  0  0  0  0  0  0  0  0  0
    0.5350    9.0760   62.5820 C   0  0  0  0  0  0  0  0  0  0  0  0
    0.6350    9.2370   63.9410 C   0  0  0  0  0  0  0  0  0  0  0  0
    1.5050   10.2670   64.4860 C   0  0  0  0  0  0  0  0  0  0  0  0
   -0.6350    7.5800   67.0460 C   0  0  0  0  0  0  0  0  0  0  0  0
    1.0680    9.6880   68.0570 O   0  0  0  0  0  0  0  0  0  0  0  0
    2.3080   11.3400   66.3160 O   0  0  0  0  0  0  0  0  0  0  0  0
  1  2  1  0
  1  9  1  0
  2  3  2  0
  2 11  1  0
  3  4  1  0
  3 12  1  0
  4 10  1  0
  4 13  2  0
  5  6  1  0
  5 10  2  0
  6  7  2  0
  7  8  1  0
  8  9  2  0
  9 10  1  0
M  END
>  <PDBID_FRAGID>  (1) 
FRASE_2WJ4_HQD_fragment_1

>  <triplet_in_target>  (1) 
PHEA21ILEA27LEUA94

$$$$
FRASE_5OBR_SKE_fragment_3_0_ASPA105LEUA170ILEA177
     RDKit          3D

  9  9  0  0  0  0  0  0  0  0999 V2000
   17.7330   22.0330   78.9150 C   0  0  0  0  0  0  0  0  0  0  0  0
   18.0330   22.2880   77.6330 N   0  0  0  0  0  0  0  0  0  0  0  0
   16.8290   21.9410   80.8300 C   0  0  0  0  0  0  0  0  0  0  0  0
   16.5740   22.2890   79.5300 N   0  0  0  0  0  0  0  0  0  0  0  0
   15.8800   22.2190   81.8010 N   0  0  0  0  0  0  0  0  0  0  0  0
   20.4760   21.1320   78.5580 O   0  0  0  0  0  0  0  0  0  0  0  0
   18.0350   21.4560   81.0700 N   0  0  0  0  0  0  0  0  0  0  0  0
   18.6260   21.5240   79.8250 N   0  0  0  0  0  0  0  0  0  0  0  0
   19.9630   21.1380   79.6640 C   0  0  0  0  0  0  0  0  0  0  0  0
  1  2  1  0
  1  4  2  0
  1  8  1  0
  3  4  1  0
  3  5  1  0
  3  7  2  0
  6  9  2  0
  7  8  1  0
  8  9  1  0
M  END
>  <PDBID_FRAGID>  (1) 
FRASE_5OBR_SKE_fragment_3

>  <triplet_in_target>  (1) 
ASPA105LEUA170ILEA177

$$$$
FRASE_6UZU_6LU_fragment_2_0_ILEA114LEUA123LEUA170
     RDKit          3D

 14 14  0  0  0  0  0  0  0  0999 V2000
   10.7080    6.3540   83.8430 N   0  0  0  0  0  0  0  0  0  0  0  0
   10.0850    7.3320   82.9940 C   0  0  0  0  0  0  0  0  0  0  0  0
   10.1900    7.2830   81.8000 O   0  0  0  0  0  0  0  0  0  0  0  0
    9.3910    8.3700   83.7180 N   0  0  0  0  0  0  0  0  0  0  0  0
    8.6610    9.3930   83.0170 C   0  0  0  0  0  0  0  0  0  0  0  0
    7.4100    9.7000   83.5460 C   0  0  0  0  0  0  0  0  0  0  0  0
    6.6090   10.6550   82.9140 C   0  0  0  0  0  0  0  0  0  0  0  0
    7.0750   11.2460   81.7440 C   0  0  0  0  0  0  0  0  0  0  0  0
    6.1280   12.4720   80.8280 S   0  0  1  0  0  0  0  0  0  0  0  0
    6.2190   13.8520   81.5730 O   0  0  0  0  0  0  0  0  0  0  0  0
    6.7570   12.4960   79.3310 O   0  0  0  0  0  0  0  0  0  0  0  0
    4.5650   11.9960   80.7630 N   0  0  0  0  0  0  0  0  0  0  0  0
    8.3200   10.9040   81.2190 C   0  0  0  0  0  0  0  0  0  0  0  0
    9.1120    9.9620   81.8470 C   0  0  0  0  0  0  0  0  0  0  0  0
  1  2  1  0
  2  3  2  0
  2  4  1  0
  4  5  1  0
  5  6  2  0
  5 14  1  0
  6  7  1  0
  7  8  2  0
  8  9  1  0
  8 13  1  0
  9 10  2  0
  9 11  2  0
  9 12  1  6
 13 14  2  0
M  END
>  <PDBID_FRAGID>  (1) 
FRASE_6UZU_6LU_fragment_2

>  <triplet_in_target>  (1) 
ILEA114LEUA123LEUA170

$$$$
FRASE_5HIQ_60Q_fragment_1_0_ASPA161ASNA169HISA175
     RDKit          3D

  9  9  0  0  0  0  0  0  0  0999 V2000
   25.3640   13.1750   78.0130 C   0  0  0  0  0  0  0  0  0  0  0  0
   26.1830   12.7970   79.0660 C   0  0  0  0  0  0  0  0  0  0  0  0
   25.6330   12.3170   80.2460 C   0  0  0  0  0  0  0  0  0  0  0  0
   24.2510   12.2080   80.3670 C   0  0  0  0  0  0  0  0  0  0  0  0
   23.4350   12.5910   79.3140 C   0  0  0  0  0  0  0  0  0  0  0  0
   23.9890   13.0710   78.1370 C   0  0  0  0  0  0  0  0  0  0  0  0
   23.6180   11.6900   81.6440 C   0  0  0  0  0  0  0  0  0  0  0  0
   23.8700   10.5290   82.0610 O   0  0  0  0  0  0  0  0  0  0  0  0
   22.8320   12.4310   82.2900 O   0  0  0  0  0  0  0  0  0  0  0  0
  1  2  2  0
  1  6  1  0
  2  3  1  0
  3  4  2  0
  4  5  1  0
  4  7  1  0
  5  6  2  0
  7  8  2  0
  7  9  1  0
M  END
>  <PDBID_FRAGID>  (1) 
FRASE_5HIQ_60Q_fragment_1

>  <triplet_in_target>  (1) 
ASPA161ASNA169HISA175

$$$$
FRASE_3APD_MMY_fragment_4_0_PHEA115ASPA120LEUA170
     RDKit          3D

  7  7  0  0  0  0  0  0  0  0999 V2000
    8.7360    9.5680   80.2790 C   0  0  0  0  0  0  0  0  0  0  0  0
    9.4920    9.9930   81.3680 C   0  0  0  0  0  0  0  0  0  0  0  0
   10.8050    9.9080   81.3400 N   0  0  0  0  0  0  0  0  0  0  0  0
   11.4380    9.4160   80.2580 C   0  0  0  0  0  0  0  0  0  0  0  0
   12.7680    9.3520   80.2430 N   0  0  0  0  0  0  0  0  0  0  0  0
   10.7350    9.0040   79.1870 N   0  0  0  0  0  0  0  0  0  0  0  0
    9.4120    9.0590   79.1710 C   0  0  0  0  0  0  0  0  0  0  0  0
  1  2  2  0
  1  7  1  0
  2  3  1  0
  3  4  2  0
  4  5  1  0
  4  6  1  0
  6  7  2  0
M  END
>  <PDBID_FRAGID>  (1) 
FRASE_3APD_MMY_fragment_4

>  <triplet_in_target>  (1) 
PHEA115ASPA120LEUA170

$$$$
FRASE_6FAG_EON_fragment_1_0_PHEA55LEUA64ILEA73
     RDKit          3D

  9  9  0  0  0  0  0  0  0  0999 V2000
   17.4430   -6.2910   71.1480 C   0  0  0  0  0  0  0  0  0  0  0  0
   17.6510   -7.4030   71.9850 C   0  0  0  0  0  0  0  0  0  0  0  0
   18.7250   -8.2560   71.7330 C   0  0  0  0  0  0  0  0  0  0  0  0
   19.5760   -7.9980   70.6690 C   0  0  0  0  0  0  0  0  0  0  0  0
   19.3810   -6.8860   69.8680 C   0  0  0  0  0  0  0  0  0  0  0  0
   18.3180   -6.0240   70.1020 C   0  0  0  0  0  0  0  0  0  0  0  0
   16.1230   -4.3340   70.7500 C   0  0  0  0  0  0  0  0  0  0  0  0
   16.3060   -5.5780   71.4150 O   0  0  0  0  0  0  0  0  0  0  0  0
   16.7470   -7.5760   73.0650 N   0  0  0  0  0  0  0  0  0  0  0  0
  1  2  2  0
  1  6  1  0
  1  8  1  0
  2  3  1  0
  2  9  1  0
  3  4  2  0
  4  5  1  0
  5  6  2  0
  7  8  1  0
M  END
>  <PDBID_FRAGID>  (1) 
FRASE_6FAG_EON_fragment_1

>  <triplet_in_target>  (1) 
PHEA55LEUA64ILEA73

$$$$
FRASE_5TZA_7OG_fragment_1_0_ILEA106PHEA112ILEA177
     RDKit          3D

  7  7  0  0  0  0  0  0  0  0999 V2000
   19.5810    9.7450   71.6580 C   0  0  0  0  0  0  0  0  0  0  0  0
   18.9760   11.4270   70.0700 N   0  0  0  0  0  0  0  0  0  0  0  0
   19.2820   11.2210   71.4600 C   0  0  0  0  0  0  0  0  0  0  0  0
   18.1360    9.1270   69.7230 C   0  0  0  0  0  0  0  0  0  0  0  0
   19.5070   12.4060   69.2560 C   0  0  0  0  0  0  0  0  0  0  0  0
   18.4450    8.8590   71.1700 C   0  0  0  0  0  0  0  0  0  0  0  0
   17.9160   10.6110   69.5140 C   0  0  0  0  0  0  0  0  0  0  0  0
  1  3  1  0
  1  6  1  0
  2  3  1  0
  2  5  1  0
  2  7  1  0
  4  6  1  0
  4  7  1  0
M  END
>  <PDBID_FRAGID>  (1) 
FRASE_5TZA_7OG_fragment_1

>  <triplet_in_target>  (1) 
ILEA106PHEA112ILEA177

$$$$
FRASE_5G6O_8VJ_fragment_2_0_HISA31ALAA51PHEA91
     RDKit          3D

 13 14  0  0  0  0  0  0  0  0999 V2000
   -3.2350    6.4950   59.7550 O   0  0  0  0  0  0  0  0  0  0  0  0
   -4.5080    6.3520   60.3820 C   0  0  0  0  0  0  0  0  0  0  0  0
   -4.6840    4.4430   63.5750 C   0  0  0  0  0  0  0  0  0  0  0  0
   -5.0000    4.9390   62.3430 C   0  0  0  0  0  0  0  0  0  0  0  0
   -4.1320    5.7990   61.7080 C   0  0  0  0  0  0  0  0  0  0  0  0
   -2.9040    6.1190   62.2840 C   0  0  0  0  0  0  0  0  0  0  0  0
   -2.5620    5.5940   63.5210 C   0  0  0  0  0  0  0  0  0  0  0  0
   -3.4390    4.7400   64.1880 C   0  0  0  0  0  0  0  0  0  0  0  0
   -3.1210    4.1810   65.4120 C   0  0  0  0  0  0  0  0  0  0  0  0
   -4.0460    3.3290   66.0240 C   0  0  0  0  0  0  0  0  0  0  0  0
   -5.2900    3.0870   65.3940 C   0  0  0  0  0  0  0  0  0  0  0  0
   -6.2290    2.2760   65.9860 N   0  0  0  0  0  0  0  0  0  0  0  0
   -5.5660    3.6220   64.1760 N   0  0  0  0  0  0  0  0  0  0  0  0
  1  2  1  0
  2  5  1  0
  3  4  2  0
  3  8  1  0
  3 13  1  0
  4  5  1  0
  5  6  2  0
  6  7  1  0
  7  8  2  0
  8  9  1  0
  9 10  2  0
 10 11  1  0
 11 12  1  0
 11 13  2  0
M  END
>  <PDBID_FRAGID>  (1) 
FRASE_5G6O_8VJ_fragment_2

>  <triplet_in_target>  (1) 
HISA31ALAA51PHEA91

$$$$
FRASE_3T55_4RG_fragment_1_0_PHEA69PHEA115LEUA135
     RDKit          3D

 11 11  0  0  0  0  0  0  0  0999 V2000
   15.0490   -2.2930   81.6120 C   0  0  0  0  0  0  0  0  0  0  0  0
   16.3480   -2.7030   80.9110 C   0  0  0  0  0  0  0  0  0  0  0  0
   17.5310   -2.6840   81.6380 C   0  0  0  0  0  0  0  0  0  0  0  0
   18.7310   -3.0340   81.0300 C   0  0  0  0  0  0  0  0  0  0  0  0
   18.7640   -3.3900   79.6900 C   0  0  0  0  0  0  0  0  0  0  0  0
   17.5810   -3.4240   78.9430 C   0  0  0  0  0  0  0  0  0  0  0  0
   16.3780   -3.0730   79.5610 C   0  0  0  0  0  0  0  0  0  0  0  0
   15.1030   -1.9420   82.8250 O   0  0  0  0  0  0  0  0  0  0  0  0
   14.0210   -2.2090   80.9090 O   0  0  0  0  0  0  0  0  0  0  0  0
   19.9080   -2.9790   81.7880 C   0  0  0  0  0  0  0  0  0  0  0  0
   21.2100   -2.9780   81.1370 O   0  0  0  0  0  0  0  0  0  0  0  0
  1  2  1  0
  1  8  2  0
  1  9  1  0
  2  3  2  0
  2  7  1  0
  3  4  1  0
  4  5  2  0
  4 10  1  0
  5  6  1  0
  6  7  2  0
 10 11  1  0
M  END
>  <PDBID_FRAGID>  (1) 
FRASE_3T55_4RG_fragment_1

>  <triplet_in_target>  (1) 
PHEA69PHEA115LEUA135

$$$$
FRASE_3IU2_096_fragment_3_0_PHEA55LEUA64ILEA73
     RDKit          3D

  6  6  0  0  0  0  0  0  0  0999 V2000
   14.6120   -5.2020   71.6970 N   0  0  0  0  0  0  0  0  0  0  0  0
   14.7760   -7.4490   70.9000 C   0  0  0  0  0  0  0  0  0  0  0  0
   14.0430   -7.0880   69.7630 C   0  0  0  0  0  0  0  0  0  0  0  0
   13.6110   -5.7690   69.6160 C   0  0  0  0  0  0  0  0  0  0  0  0
   13.9080   -4.8350   70.6110 C   0  0  0  0  0  0  0  0  0  0  0  0
   15.0410   -6.4680   71.8610 C   0  0  0  0  0  0  0  0  0  0  0  0
  1  5  2  0
  1  6  1  0
  2  3  1  0
  2  6  2  0
  3  4  2  0
  4  5  1  0
M  END
>  <PDBID_FRAGID>  (1) 
FRASE_3IU2_096_fragment_3

>  <triplet_in_target>  (1) 
PHEA55LEUA64ILEA73

$$$$
FRASE_7CZI_G56_fragment_1_0_PHEA55LEUA64ARGA72
     RDKit          3D

 11 11  0  0  0  0  0  0  0  0999 V2000
   16.3680   -8.5270   72.7850 O   0  0  0  0  0  0  0  0  0  0  0  0
   16.2540   -9.6530   72.2570 C   0  0  0  0  0  0  0  0  0  0  0  0
   16.1710  -10.7070   72.9320 O   0  0  0  0  0  0  0  0  0  0  0  0
   16.1300   -9.8120   70.7880 C   0  0  0  0  0  0  0  0  0  0  0  0
   14.6790   -9.7000   70.2960 C   0  0  0  0  0  0  0  0  0  0  0  0
   13.9380   -8.4150   70.6790 C   0  0  0  0  0  0  0  0  0  0  0  0
   12.8920   -8.4540   71.6120 C   0  0  0  0  0  0  0  0  0  0  0  0
   12.1870   -7.3040   71.9550 C   0  0  0  0  0  0  0  0  0  0  0  0
   12.4980   -6.1100   71.3680 C   0  0  0  0  0  0  0  0  0  0  0  0
   13.5260   -6.0560   70.4290 C   0  0  0  0  0  0  0  0  0  0  0  0
   14.2440   -7.1870   70.0650 C   0  0  0  0  0  0  0  0  0  0  0  0
  1  2  2  0
  2  3  1  0
  2  4  1  0
  4  5  1  0
  5  6  1  0
  6  7  2  0
  6 11  1  0
  7  8  1  0
  8  9  2  0
  9 10  1  0
 10 11  2  0
M  END
>  <PDBID_FRAGID>  (1) 
FRASE_7CZI_G56_fragment_1

>  <triplet_in_target>  (1) 
PHEA55LEUA64ARGA72

$$$$
FRASE_7FZ9_WER_fragment_3_0_ALAA30PHEA88LEUA94
     RDKit          3D

  6  6  0  0  0  0  0  0  0  0999 V2000
    6.7480   -1.8700   61.5550 C   0  0  0  0  0  0  0  0  0  0  0  0
    4.6820   -2.7090   60.6510 C   0  0  0  0  0  0  0  0  0  0  0  0
    4.4420   -1.5660   61.4090 C   0  0  0  0  0  0  0  0  0  0  0  0
    5.6960   -0.9130   62.0210 C   0  0  0  0  0  0  0  0  0  0  0  0
    5.6730    0.3660   62.9640 C   0  0  0  0  0  0  0  0  0  0  0  0
    6.2050   -3.0370   60.5860 S   0  0  0  0  0  0  0  0  0  0  0  0
  1  4  2  0
  1  6  1  0
  2  3  2  0
  2  6  1  0
  3  4  1  0
  4  5  1  0
M  END
>  <PDBID_FRAGID>  (1) 
FRASE_7FZ9_WER_fragment_3

>  <triplet_in_target>  (1) 
ALAA30PHEA88LEUA94

$$$$
FRASE_5OGO_WWO_fragment_2_0_PHEA21ILEA27LEUA94
     RDKit          3D

  8  8  0  0  0  0  0  0  0  0999 V2000
    1.7340   13.0390   64.2160 N   0  0  0  0  0  0  0  0  0  0  0  0
    2.8260   12.3520   63.5330 C   0  0  0  0  0  0  0  0  0  0  0  0
    2.3530   11.1550   62.7500 C   0  0  0  0  0  0  0  0  0  0  0  0
    2.5090    9.8470   63.2660 C   0  0  0  0  0  0  0  0  0  0  0  0
    2.0260    8.7550   62.6060 C   0  0  0  0  0  0  0  0  0  0  0  0
    1.3570    8.9500   61.3780 C   0  0  0  0  0  0  0  0  0  0  0  0
    1.1880   10.2020   60.8750 C   0  0  0  0  0  0  0  0  0  0  0  0
    1.6840   11.3140   61.5400 C   0  0  0  0  0  0  0  0  0  0  0  0
  1  2  1  0
  2  3  1  0
  3  4  2  0
  3  8  1  0
  4  5  1  0
  5  6  2  0
  6  7  1  0
  7  8  2  0
M  END
>  <PDBID_FRAGID>  (1) 
FRASE_5OGO_WWO_fragment_2

>  <triplet_in_target>  (1) 
PHEA21ILEA27LEUA94

$$$$
FRASE_3NVC_SAL_fragment_1_0_PROA104HISA109ILEA177
     RDKit          3D

 10 10  0  0  0  0  0  0  0  0999 V2000
   14.6020   20.7260   74.2770 C   0  0  0  0  0  0  0  0  0  0  0  0
   13.8360   21.6460   73.9150 O   0  0  0  0  0  0  0  0  0  0  0  0
   14.4940   19.5140   74.0210 O   0  0  0  0  0  0  0  0  0  0  0  0
   15.7350   21.0410   75.1370 C   0  0  0  0  0  0  0  0  0  0  0  0
   15.4520   20.9610   76.5720 C   0  0  0  0  0  0  0  0  0  0  0  0
   16.4600   21.2340   77.4780 C   0  0  0  0  0  0  0  0  0  0  0  0
   17.7140   21.5670   76.9780 C   0  0  0  0  0  0  0  0  0  0  0  0
   17.9650   21.6400   75.5980 C   0  0  0  0  0  0  0  0  0  0  0  0
   16.9720   21.3710   74.6510 C   0  0  0  0  0  0  0  0  0  0  0  0
   14.1720   20.6290   76.9340 O   0  0  0  0  0  0  0  0  0  0  0  0
  1  2  2  0
  1  3  1  0
  1  4  1  0
  4  5  2  0
  4  9  1  0
  5  6  1  0
  5 10  1  0
  6  7  2  0
  7  8  1  0
  8  9  2  0
M  END
>  <PDBID_FRAGID>  (1) 
FRASE_3NVC_SAL_fragment_1

>  <triplet_in_target>  (1) 
PROA104HISA109ILEA177

$$$$
FRASE_6YT6_PKE_fragment_2_0_LEUA94ILEA106ALAA111
     RDKit          3D

  8  8  0  0  0  0  0  0  0  0999 V2000
   12.5180    6.8550   69.8920 C   0  0  0  0  0  0  0  0  0  0  0  0
   11.4380    6.6730   70.6710 N   0  0  0  0  0  0  0  0  0  0  0  0
   12.8030    7.9450   69.1660 N   0  0  0  0  0  0  0  0  0  0  0  0
   11.9020    8.9310   69.2330 C   0  0  0  0  0  0  0  0  0  0  0  0
   10.7520    8.8640   69.9880 C   0  0  0  0  0  0  0  0  0  0  0  0
   10.5640    7.6880   70.7060 C   0  0  0  0  0  0  0  0  0  0  0  0
    9.4560    7.5290   71.4770 N   0  0  0  0  0  0  0  0  0  0  0  0
   13.4330    5.8600   69.7450 N   0  0  0  0  0  0  0  0  0  0  0  0
  1  2  2  0
  1  3  1  0
  1  8  1  0
  2  6  1  0
  3  4  2  0
  4  5  1  0
  5  6  2  0
  6  7  1  0
M  END
>  <PDBID_FRAGID>  (1) 
FRASE_6YT6_PKE_fragment_2

>  <triplet_in_target>  (1) 
LEUA94ILEA106ALAA111

$$$$
FRASE_6F7I_CW5_fragment_2_0_ILEA58ILEA73SERA85
     RDKit          3D

 17 18  0  0  0  0  0  0  0  0999 V2000
   10.0000   -5.5290   73.1170 C   0  0  0  0  0  0  0  0  0  0  0  0
    9.4300   -6.5580   73.8300 C   0  0  0  0  0  0  0  0  0  0  0  0
   11.0780   -5.8450   72.1220 C   0  0  0  0  0  0  0  0  0  0  0  0
   10.8140   -8.0750   72.7500 C   0  0  0  0  0  0  0  0  0  0  0  0
   10.1090   -9.9270   73.6190 C   0  0  0  0  0  0  0  0  0  0  0  0
   11.0780   -9.3810   72.6590 C   0  0  0  0  0  0  0  0  0  0  0  0
    8.2910   -6.4200   74.8820 C   0  0  2  0  0  0  0  0  0  0  0  0
    6.9230   -6.0880   74.2050 C   0  0  0  0  0  0  0  0  0  0  0  0
    9.1450   -3.4620   72.1750 C   0  0  0  0  0  0  0  0  0  0  0  0
    9.6910   -5.4650   76.6870 C   0  0  0  0  0  0  0  0  0  0  0  0
   11.4370   -7.0480   71.9700 N   0  0  0  0  0  0  0  0  0  0  0  0
    9.8760   -7.7900   73.6320 N   0  0  0  0  0  0  0  0  0  0  0  0
    9.4830   -8.9710   74.1540 N   0  0  0  0  0  0  0  0  0  0  0  0
    9.9530  -11.5920   74.0550 Cl  0  0  0  0  0  0  0  0  0  0  0  0
    8.5210   -5.3500   75.8470 O   0  0  0  0  0  0  0  0  0  0  0  0
    9.5490   -4.2530   73.2000 N   0  0  0  0  0  0  0  0  0  0  0  0
    9.1070   -3.8310   71.0060 O   0  0  0  0  0  0  0  0  0  0  0  0
  1  2  2  0
  1  3  1  0
  1 16  1  0
  2  7  1  0
  2 12  1  0
  3 11  2  0
  4  6  2  0
  4 11  1  0
  4 12  1  0
  5  6  1  0
  5 13  2  0
  5 14  1  0
  7  8  1  6
  7 15  1  0
  9 16  1  0
  9 17  2  0
 10 15  1  0
 12 13  1  0
M  END
>  <PDBID_FRAGID>  (1) 
FRASE_6F7I_CW5_fragment_2

>  <triplet_in_target>  (1) 
ILEA58ILEA73SERA85

$$$$
FRASE_2FDU_D1G_fragment_2_0_PHEA69VALA76PHEA117
     RDKit          3D

  9  9  0  0  0  0  0  0  0  0999 V2000
   10.8270   -3.9450   74.2010 C   0  0  0  0  0  0  0  0  0  0  0  0
   10.9320   -3.4190   75.4570 C   0  0  0  0  0  0  0  0  0  0  0  0
    9.6070   -3.0410   75.8670 C   0  0  0  0  0  0  0  0  0  0  0  0
    8.7710   -3.3730   74.8140 C   0  0  0  0  0  0  0  0  0  0  0  0
    9.4780   -3.9270   73.7800 O   0  0  0  0  0  0  0  0  0  0  0  0
    7.3000   -3.2620   74.6390 C   0  0  0  0  0  0  0  0  0  0  0  0
    6.5840   -4.5260   74.8900 N   0  0  0  0  0  0  0  0  0  0  0  0
    7.0260   -5.5260   74.0040 C   0  0  0  0  0  0  0  0  0  0  0  0
    6.7320   -5.0080   76.2190 C   0  0  0  0  0  0  0  0  0  0  0  0
  1  2  2  0
  1  5  1  0
  2  3  1  0
  3  4  2  0
  4  5  1  0
  4  6  1  0
  6  7  1  0
  7  8  1  0
  7  9  1  0
M  END
>  <PDBID_FRAGID>  (1) 
FRASE_2FDU_D1G_fragment_2

>  <triplet_in_target>  (1) 
PHEA69VALA76PHEA117

$$$$
FRASE_5LBZ_6T3_fragment_2_0_GLNA52ILEA58PHEA91
     RDKit          3D

  7  7  0  0  0  0  0  0  0  0999 V2000
    5.8190   -6.1230   74.4000 C   0  0  0  0  0  0  0  0  0  0  0  0
    7.0490   -6.9680   74.4670 C   0  0  0  0  0  0  0  0  0  0  0  0
    7.4050   -7.2270   73.0820 N   0  0  0  0  0  0  0  0  0  0  0  0
    7.1210   -8.6550   72.7500 C   0  0  0  0  0  0  0  0  0  0  0  0
    8.4360   -9.1620   72.2260 C   0  0  0  0  0  0  0  0  0  0  0  0
    9.4340   -8.1240   72.7270 C   0  0  0  0  0  0  0  0  0  0  0  0
    8.7570   -6.7660   72.7480 C   0  0  0  0  0  0  0  0  0  0  0  0
  1  2  1  0
  2  3  1  0
  3  4  1  0
  3  7  1  0
  4  5  1  0
  5  6  1  0
  6  7  1  0
M  END
>  <PDBID_FRAGID>  (1) 
FRASE_5LBZ_6T3_fragment_2

>  <triplet_in_target>  (1) 
GLNA52ILEA58PHEA91

$$$$
FRASE_5SAW_1IM_fragment_2_0_LEUA28PHEA34VALA45
     RDKit          3D

  7  7  0  0  0  0  0  0  0  0999 V2000
   -0.2650   -1.3310   49.9210 C   0  0  0  0  0  0  0  0  0  0  0  0
    0.5490   -2.3910   50.3500 C   0  0  0  0  0  0  0  0  0  0  0  0
    1.9400   -2.3340   50.1540 C   0  0  0  0  0  0  0  0  0  0  0  0
    2.2300   -4.3980   51.1670 C   0  0  0  0  0  0  0  0  0  0  0  0
    0.8630   -4.5350   51.4080 C   0  0  0  0  0  0  0  0  0  0  0  0
    0.0010   -3.5170   50.9960 C   0  0  0  0  0  0  0  0  0  0  0  0
    2.7770   -3.3200   50.5510 N   0  0  0  0  0  0  0  0  0  0  0  0
  1  2  1  0
  2  3  2  0
  2  6  1  0
  3  7  1  0
  4  5  1  0
  4  7  2  0
  5  6  2  0
M  END
>  <PDBID_FRAGID>  (1) 
FRASE_5SAW_1IM_fragment_2

>  <triplet_in_target>  (1) 
LEUA28PHEA34VALA45

$$$$
FRASE_1PBC_BHA_fragment_1_0_ARGA32LEUA38LEUA49
     RDKit          3D

 11 11  0  0  0  0  0  0  0  0999 V2000
   -3.7310   -2.1260   52.7980 C   0  0  0  0  0  0  0  0  0  0  0  0
   -4.6330   -1.4860   52.2160 O   0  0  0  0  0  0  0  0  0  0  0  0
   -3.4690   -1.9260   54.0130 O   0  0  0  0  0  0  0  0  0  0  0  0
   -2.9780   -3.0880   52.0560 C   0  0  0  0  0  0  0  0  0  0  0  0
   -3.2470   -3.2550   50.6720 C   0  0  0  0  0  0  0  0  0  0  0  0
   -2.4990   -4.1720   49.9240 C   0  0  0  0  0  0  0  0  0  0  0  0
   -1.4790   -4.9150   50.5070 C   0  0  0  0  0  0  0  0  0  0  0  0
   -1.1960   -4.7550   51.8660 C   0  0  0  0  0  0  0  0  0  0  0  0
   -1.9380   -3.8560   52.6230 C   0  0  0  0  0  0  0  0  0  0  0  0
   -4.1090   -2.5850   49.9600 O   0  0  0  0  0  0  0  0  0  0  0  0
   -0.8160   -5.7870   49.7440 N   0  0  0  0  0  0  0  0  0  0  0  0
  1  2  2  0
  1  3  1  0
  1  4  1  0
  4  5  2  0
  4  9  1  0
  5  6  1  0
  5 10  1  0
  6  7  2  0
  7  8  1  0
  7 11  1  0
  8  9  2  0
M  END
>  <PDBID_FRAGID>  (1) 
FRASE_1PBC_BHA_fragment_1

>  <triplet_in_target>  (1) 
ARGA32LEUA38LEUA49

$$$$
FRASE_7D0T_GQR_fragment_1_0_PHEA55LEUA64ARGA72
     RDKit          3D

 11 11  0  0  0  0  0  0  0  0999 V2000
   15.6080  -10.6760   73.0680 O   0  0  0  0  0  0  0  0  0  0  0  0
   15.8390   -9.6150   72.4120 C   0  0  0  0  0  0  0  0  0  0  0  0
   16.0070   -8.4730   72.9340 O   0  0  0  0  0  0  0  0  0  0  0  0
   15.9050   -9.7450   70.9060 C   0  0  0  0  0  0  0  0  0  0  0  0
   14.4920   -9.6730   70.3510 C   0  0  0  0  0  0  0  0  0  0  0  0
   13.7610   -8.3860   70.6850 C   0  0  0  0  0  0  0  0  0  0  0  0
   12.7740   -8.4250   71.6490 C   0  0  0  0  0  0  0  0  0  0  0  0
   12.1070   -7.2500   71.9800 C   0  0  0  0  0  0  0  0  0  0  0  0
   12.4090   -6.0770   71.2960 C   0  0  0  0  0  0  0  0  0  0  0  0
   13.4070   -6.0440   70.3360 C   0  0  0  0  0  0  0  0  0  0  0  0
   14.1090   -7.2020   70.0370 C   0  0  0  0  0  0  0  0  0  0  0  0
  1  2  2  0
  2  3  1  0
  2  4  1  0
  4  5  1  0
  5  6  1  0
  6  7  2  0
  6 11  1  0
  7  8  1  0
  8  9  2  0
  9 10  1  0
 10 11  2  0
M  END
>  <PDBID_FRAGID>  (1) 
FRASE_7D0T_GQR_fragment_1

>  <triplet_in_target>  (1) 
PHEA55LEUA64ARGA72

$$$$
FRASE_5M7G_FB7_fragment_1_0_ARGA32LEUA38VALA45
     RDKit          3D

 11 11  0  0  0  0  0  0  0  0999 V2000
   -0.4120   -5.1270   50.8690 F   0  0  0  0  0  0  0  0  0  0  0  0
   -1.1140   -6.0900   51.2790 C   0  0  1  0  0  0  0  0  0  0  0  0
   -0.8160   -7.0560   50.6600 F   0  0  0  0  0  0  0  0  0  0  0  0
   -0.8250   -6.2790   52.4270 F   0  0  0  0  0  0  0  0  0  0  0  0
   -2.4830   -5.8660   51.0840 C   0  0  0  0  0  0  0  0  0  0  0  0
   -2.9010   -4.7970   50.2740 C   0  0  0  0  0  0  0  0  0  0  0  0
   -4.2460   -4.5400   50.0600 C   0  0  0  0  0  0  0  0  0  0  0  0
   -4.6490   -3.5370   49.2900 N   0  0  0  0  0  0  0  0  0  0  0  0
   -5.1590   -5.3160   50.6100 N   0  0  0  0  0  0  0  0  0  0  0  0
   -4.7890   -6.3750   51.3990 C   0  0  0  0  0  0  0  0  0  0  0  0
   -3.4670   -6.6780   51.6630 C   0  0  0  0  0  0  0  0  0  0  0  0
  2  1  1  6
  2  3  1  0
  2  4  1  0
  2  5  1  0
  5  6  2  0
  5 11  1  0
  6  7  1  0
  7  8  1  0
  7  9  2  0
  9 10  1  0
 10 11  2  0
M  END
>  <PDBID_FRAGID>  (1) 
FRASE_5M7G_FB7_fragment_1

>  <triplet_in_target>  (1) 
ARGA32LEUA38VALA45

$$$$
FRASE_5G6D_JHT_fragment_2_0_HISA31ALAA51PHEA91
     RDKit          3D

 14 15  0  0  0  0  0  0  0  0999 V2000
   -5.4850    7.3820   57.8050 C   0  0  0  0  0  0  0  0  0  0  0  0
   -4.5920    6.6630   58.7180 N   0  0  0  0  0  0  0  0  0  0  0  0
   -5.3950    6.4410   59.8640 C   0  0  0  0  0  0  0  0  0  0  0  0
   -4.6630    6.0490   61.1470 C   0  0  0  0  0  0  0  0  0  0  0  0
   -3.3790    6.4520   61.5020 C   0  0  0  0  0  0  0  0  0  0  0  0
   -2.8540    6.0200   62.7120 C   0  0  0  0  0  0  0  0  0  0  0  0
   -3.6650    5.1450   63.6030 C   0  0  0  0  0  0  0  0  0  0  0  0
   -3.1860    4.6640   64.8790 C   0  0  0  0  0  0  0  0  0  0  0  0
   -4.0150    3.8360   65.6680 C   0  0  0  0  0  0  0  0  0  0  0  0
   -5.2800    3.5130   65.2070 C   0  0  0  0  0  0  0  0  0  0  0  0
   -6.1980    2.6760   65.9550 N   0  0  0  0  0  0  0  0  0  0  0  0
   -5.7110    3.9950   64.0200 N   0  0  0  0  0  0  0  0  0  0  0  0
   -4.8970    4.7950   63.2280 C   0  0  0  0  0  0  0  0  0  0  0  0
   -5.4240    5.2180   61.9920 C   0  0  0  0  0  0  0  0  0  0  0  0
  1  2  1  0
  2  3  1  0
  3  4  1  0
  4  5  2  0
  4 14  1  0
  5  6  1  0
  6  7  2  0
  7  8  1  0
  7 13  1  0
  8  9  2  0
  9 10  1  0
 10 11  1  0
 10 12  2  0
 12 13  1  0
 13 14  2  0
M  END
>  <PDBID_FRAGID>  (1) 
FRASE_5G6D_JHT_fragment_2

>  <triplet_in_target>  (1) 
HISA31ALAA51PHEA91

$$$$
FRASE_5MQT_STI_fragment_1_0_LYSA70VALA76PHEA115
     RDKit          3D

  6  6  0  0  0  0  0  0  0  0999 V2000
   15.8970   -4.6300   76.1350 C   0  0  0  0  0  0  0  0  0  0  0  0
   16.7050   -3.5150   76.0440 C   0  0  0  0  0  0  0  0  0  0  0  0
   16.1410   -2.2710   75.8070 C   0  0  0  0  0  0  0  0  0  0  0  0
   14.7590   -2.2230   75.6900 C   0  0  0  0  0  0  0  0  0  0  0  0
   13.9600   -3.2890   75.7780 N   0  0  0  0  0  0  0  0  0  0  0  0
   14.5410   -4.4690   75.9950 C   0  0  0  0  0  0  0  0  0  0  0  0
  1  2  2  0
  1  6  1  0
  2  3  1  0
  3  4  2  0
  4  5  1  0
  5  6  2  0
M  END
>  <PDBID_FRAGID>  (1) 
FRASE_5MQT_STI_fragment_1

>  <triplet_in_target>  (1) 
LYSA70VALA76PHEA115

$$$$
FRASE_5SAU_1IF_fragment_2_0_LEUA28PHEA34VALA45
     RDKit          3D

  8  8  0  0  0  0  0  0  0  0999 V2000
   -0.6160   -1.2890   50.0020 C   0  0  0  0  0  0  0  0  0  0  0  0
    0.1710   -2.3820   50.4050 C   0  0  0  0  0  0  0  0  0  0  0  0
    1.5770   -2.3730   50.2750 C   0  0  0  0  0  0  0  0  0  0  0  0
    1.7570   -4.4970   51.2150 C   0  0  0  0  0  0  0  0  0  0  0  0
    0.3530   -4.5720   51.3780 C   0  0  0  0  0  0  0  0  0  0  0  0
   -0.4280   -3.5000   50.9740 C   0  0  0  0  0  0  0  0  0  0  0  0
    2.3750   -3.3990   50.6690 N   0  0  0  0  0  0  0  0  0  0  0  0
    2.5960   -5.5310   51.5990 N   0  0  0  0  0  0  0  0  0  0  0  0
  1  2  1  0
  2  3  2  0
  2  6  1  0
  3  7  1  0
  4  5  1  0
  4  7  2  0
  4  8  1  0
  5  6  2  0
M  END
>  <PDBID_FRAGID>  (1) 
FRASE_5SAU_1IF_fragment_2

>  <triplet_in_target>  (1) 
LEUA28PHEA34VALA45

$$$$
FRASE_6P2E_BEZ_fragment_1_0_ILEA73PHEA112PHEA117
     RDKit          3D

  9  9  0  0  0  0  0  0  0  0999 V2000
    8.2900    8.2290   80.3940 C   0  0  0  0  0  0  0  0  0  0  0  0
    9.4790    8.5870   80.4980 O   0  0  0  0  0  0  0  0  0  0  0  0
    7.3740    8.5690   81.1740 O   0  0  0  0  0  0  0  0  0  0  0  0
    7.9410    7.3330   79.2430 C   0  0  0  0  0  0  0  0  0  0  0  0
    8.9310    6.9180   78.3610 C   0  0  0  0  0  0  0  0  0  0  0  0
    8.6000    6.1120   77.2910 C   0  0  0  0  0  0  0  0  0  0  0  0
    7.2990    5.7070   77.1010 C   0  0  0  0  0  0  0  0  0  0  0  0
    6.3170    6.1000   77.9750 C   0  0  0  0  0  0  0  0  0  0  0  0
    6.6300    6.9160   79.0430 C   0  0  0  0  0  0  0  0  0  0  0  0
  1  2  2  0
  1  3  1  0
  1  4  1  0
  4  5  2  0
  4  9  1  0
  5  6  1  0
  6  7  2  0
  7  8  1  0
  8  9  2  0
M  END
>  <PDBID_FRAGID>  (1) 
FRASE_6P2E_BEZ_fragment_1

>  <triplet_in_target>  (1) 
ILEA73PHEA112PHEA117

$$$$
FRASE_3O5W_H35_fragment_1_0_ILEA153GLUA159GLYA166
     RDKit          3D

  7  7  0  0  0  0  0  0  0  0999 V2000
   28.9180   12.7360   92.2960 C   0  0  0  0  0  0  0  0  0  0  0  0
   28.0630   12.8250   91.2450 C   0  0  0  0  0  0  0  0  0  0  0  0
   28.3050   11.8870   90.3030 C   0  0  0  0  0  0  0  0  0  0  0  0
   29.3740   11.1540   90.8010 O   0  0  0  0  0  0  0  0  0  0  0  0
   29.7130   11.7090   92.0350 C   0  0  0  0  0  0  0  0  0  0  0  0
   30.8540   11.1350   92.8520 C   0  0  0  0  0  0  0  0  0  0  0  0
   31.5690   10.1800   91.9410 N   0  0  0  0  0  0  0  0  0  0  0  0
  1  2  1  0
  1  5  2  0
  2  3  2  0
  3  4  1  0
  4  5  1  0
  5  6  1  0
  6  7  1  0
M  END
>  <PDBID_FRAGID>  (1) 
FRASE_3O5W_H35_fragment_1

>  <triplet_in_target>  (1) 
ILEA153GLUA159GLYA166

$$$$
FRASE_6JEM_STL_fragment_1_0_GLUA26HISA31LEUA92
     RDKit          3D

 10 10  0  0  0  0  0  0  0  0999 V2000
   -1.7720    8.6790   57.6780 C   0  0  0  0  0  0  0  0  0  0  0  0
   -1.1670    9.8940   57.9780 C   0  0  0  0  0  0  0  0  0  0  0  0
   -0.1160   10.3580   57.1960 C   0  0  0  0  0  0  0  0  0  0  0  0
    0.3300    9.6070   56.1140 C   0  0  0  0  0  0  0  0  0  0  0  0
   -0.2750    8.3920   55.8150 C   0  0  0  0  0  0  0  0  0  0  0  0
   -1.3270    7.9280   56.5970 C   0  0  0  0  0  0  0  0  0  0  0  0
    0.1990    7.5920   54.6640 C   0  0  0  0  0  0  0  0  0  0  0  0
    1.2000    8.0400   53.9110 C   0  0  0  0  0  0  0  0  0  0  0  0
    0.4770   11.5490   57.4890 O   0  0  0  0  0  0  0  0  0  0  0  0
   -2.8030    8.2250   58.4440 O   0  0  0  0  0  0  0  0  0  0  0  0
  1  2  2  0
  1  6  1  0
  1 10  1  0
  2  3  1  0
  3  4  2  0
  3  9  1  0
  4  5  1  0
  5  6  2  0
  5  7  1  0
  7  8  2  0
M  END
>  <PDBID_FRAGID>  (1) 
FRASE_6JEM_STL_fragment_1

>  <triplet_in_target>  (1) 
GLUA26HISA31LEUA92

$$$$
FRASE_3QVU_NPO_fragment_1_0_VALA76HISA109PHEA115
     RDKit          3D

 10 10  0  0  0  0  0  0  0  0999 V2000
    9.8520   10.4610   80.7090 C   0  0  0  0  0  0  0  0  0  0  0  0
   10.6620   11.3570   81.4010 C   0  0  0  0  0  0  0  0  0  0  0  0
   11.8890   10.9400   81.9060 C   0  0  0  0  0  0  0  0  0  0  0  0
   12.3080    9.6270   81.7170 C   0  0  0  0  0  0  0  0  0  0  0  0
   11.4990    8.7320   81.0240 C   0  0  0  0  0  0  0  0  0  0  0  0
   10.2720    9.1490   80.5220 C   0  0  0  0  0  0  0  0  0  0  0  0
   13.5100    9.2160   82.2090 O   0  0  0  0  0  0  0  0  0  0  0  0
    8.6120   10.8740   80.2010 N   0  0  0  0  0  0  0  0  0  0  0  0
    8.2510   12.0340   80.3140 O   0  0  0  0  0  0  0  0  0  0  0  0
    7.8850   10.0660   79.6460 O   0  0  0  0  0  0  0  0  0  0  0  0
  1  2  2  0
  1  6  1  0
  1  8  1  0
  2  3  1  0
  3  4  2  0
  4  5  1  0
  4  7  1  0
  5  6  2  0
  8  9  2  0
  8 10  1  0
M  CHG  2   8   1  10  -1
M  END
>  <PDBID_FRAGID>  (1) 
FRASE_3QVU_NPO_fragment_1

>  <triplet_in_target>  (1) 
VALA76HISA109PHEA115

$$$$
FRASE_7ZKS_IXQ_fragment_3_0_GLUA126LEUA131ILEA153
     RDKit          3D

 11 12  0  0  0  0  0  0  0  0999 V2000
   19.6700    5.5700   83.5410 C   0  0  0  0  0  0  0  0  0  0  0  0
   20.7050    5.7450   84.3230 N   0  0  0  0  0  0  0  0  0  0  0  0
   21.2720    6.9300   84.0370 C   0  0  0  0  0  0  0  0  0  0  0  0
   22.3790    7.6050   84.5530 C   0  0  0  0  0  0  0  0  0  0  0  0
   21.9700    9.4130   82.9980 C   0  0  0  0  0  0  0  0  0  0  0  0
   20.5260    7.5260   83.0020 C   0  0  0  0  0  0  0  0  0  0  0  0
   22.7050    8.8250   84.0220 C   0  0  0  0  0  0  0  0  0  0  0  0
   24.0700    9.6660   84.6580 Cl  0  0  0  0  0  0  0  0  0  0  0  0
   22.3370   10.6240   82.5210 F   0  0  0  0  0  0  0  0  0  0  0  0
   20.8660    8.7650   82.4830 C   0  0  0  0  0  0  0  0  0  0  0  0
   19.5190    6.6440   82.7140 N   0  0  0  0  0  0  0  0  0  0  0  0
  1  2  1  0
  1 11  2  0
  2  3  1  0
  3  4  2  0
  3  6  1  0
  4  7  1  0
  5  7  2  0
  5  9  1  0
  5 10  1  0
  6 10  2  0
  6 11  1  0
  7  8  1  0
M  END
>  <PDBID_FRAGID>  (1) 
FRASE_7ZKS_IXQ_fragment_3

>  <triplet_in_target>  (1) 
GLUA126LEUA131ILEA153

$$$$
FRASE_6U8L_Q1S_fragment_1_0_PHEA21LEUA94ILEA106
     RDKit          3D

 12 12  0  0  0  0  0  0  0  0999 V2000
    6.0560    9.8280   70.3580 C   0  0  0  0  0  0  0  0  0  0  0  0
    6.8910   10.3450   69.3580 C   0  0  0  0  0  0  0  0  0  0  0  0
    6.3980   11.2230   68.4020 C   0  0  0  0  0  0  0  0  0  0  0  0
    4.7060   10.1960   70.3940 C   0  0  0  0  0  0  0  0  0  0  0  0
    4.2020   11.0710   69.4310 C   0  0  0  0  0  0  0  0  0  0  0  0
    3.8930   14.0300   68.0750 N   0  0  0  0  0  0  0  0  0  0  0  0
    4.4170   12.6870   67.2310 S   0  0  1  0  0  0  0  0  0  0  0  0
    5.0510   11.5760   68.4460 C   0  0  0  0  0  0  0  0  0  0  0  0
    8.7200    9.8680   69.2850 Br  0  0  0  0  0  0  0  0  0  0  0  0
    2.8770   11.4050   69.4980 O   0  0  0  0  0  0  0  0  0  0  0  0
    3.2790   12.0080   66.6360 O   0  0  0  0  0  0  0  0  0  0  0  0
    5.5590   13.0760   66.4230 O   0  0  0  0  0  0  0  0  0  0  0  0
  1  2  2  0
  1  4  1  0
  2  3  1  0
  2  9  1  0
  3  8  2  0
  4  5  2  0
  5  8  1  0
  5 10  1  0
  7  6  1  1
  7  8  1  0
  7 11  2  0
  7 12  2  0
M  END
>  <PDBID_FRAGID>  (1) 
FRASE_6U8L_Q1S_fragment_1

>  <triplet_in_target>  (1) 
PHEA21LEUA94ILEA106

$$$$
FRASE_4C7B_BVB_fragment_1_0_LEUA28PHEA34VALA45
     RDKit          3D

  9  9  0  0  0  0  0  0  0  0999 V2000
   -0.2330    0.2880   50.0620 Br  0  0  0  0  0  0  0  0  0  0  0  0
   -2.9650   -5.2320   50.9590 C   0  0  0  0  0  0  0  0  0  0  0  0
   -2.3690   -6.4950   51.5930 C   0  0  0  0  0  0  0  0  0  0  0  0
   -0.2470   -2.6510   50.6830 C   0  0  0  0  0  0  0  0  0  0  0  0
   -2.4160   -1.6230   50.2810 C   0  0  0  0  0  0  0  0  0  0  0  0
   -0.8660   -3.9060   50.8870 C   0  0  0  0  0  0  0  0  0  0  0  0
   -3.0220   -2.8730   50.4910 C   0  0  0  0  0  0  0  0  0  0  0  0
   -1.0270   -1.5000   50.3710 C   0  0  0  0  0  0  0  0  0  0  0  0
   -2.2670   -4.0220   50.8110 C   0  0  0  0  0  0  0  0  0  0  0  0
  1  8  1  0
  2  3  2  0
  2  9  1  0
  4  6  2  0
  4  8  1  0
  5  7  1  0
  5  8  2  0
  6  9  1  0
  7  9  2  0
M  END
>  <PDBID_FRAGID>  (1) 
FRASE_4C7B_BVB_fragment_1

>  <triplet_in_target>  (1) 
LEUA28PHEA34VALA45

$$$$
FRASE_4JOS_ADE_fragment_1_0_ILEA114ASPA120LEUA170
     RDKit          3D

 10 11  0  0  0  0  0  0  0  0999 V2000
    9.9870    8.8400   79.1900 N   0  0  0  0  0  0  0  0  0  0  0  0
   11.0210    9.7190   79.1460 C   0  0  0  0  0  0  0  0  0  0  0  0
   10.8750   10.6750   80.0960 N   0  0  0  0  0  0  0  0  0  0  0  0
    9.7270   10.4230   80.7360 C   0  0  0  0  0  0  0  0  0  0  0  0
    8.9980   11.0940   81.7830 C   0  0  0  0  0  0  0  0  0  0  0  0
    9.4640   12.2000   82.3820 N   0  0  0  0  0  0  0  0  0  0  0  0
    7.8220   10.5470   82.1570 N   0  0  0  0  0  0  0  0  0  0  0  0
    7.3640    9.4000   81.5730 C   0  0  0  0  0  0  0  0  0  0  0  0
    7.9840    8.7250   80.5830 N   0  0  0  0  0  0  0  0  0  0  0  0
    9.1630    9.2150   80.1620 C   0  0  0  0  0  0  0  0  0  0  0  0
  1  2  1  0
  1 10  1  0
  2  3  2  0
  3  4  1  0
  4  5  1  0
  4 10  2  0
  5  6  1  0
  5  7  2  0
  7  8  1  0
  8  9  2  0
  9 10  1  0
M  END
>  <PDBID_FRAGID>  (1) 
FRASE_4JOS_ADE_fragment_1

>  <triplet_in_target>  (1) 
ILEA114ASPA120LEUA170

$$$$
FRASE_2ZB1_GK4_fragment_4_0_LEUA28PHEA34VALA45
     RDKit          3D

  6  6  0  0  0  0  0  0  0  0999 V2000
   -0.5180   -2.3260   51.6990 C   0  0  0  0  0  0  0  0  0  0  0  0
   -1.3720   -2.2660   52.7520 N   0  0  0  0  0  0  0  0  0  0  0  0
   -1.8820   -0.9660   52.8130 N   0  0  0  0  0  0  0  0  0  0  0  0
   -0.4900   -1.1880   51.1610 O   0  0  0  0  0  0  0  0  0  0  0  0
   -1.2640   -0.3970   51.7720 C   0  0  0  0  0  0  0  0  0  0  0  0
   -1.3230    1.0060   51.2300 C   0  0  0  0  0  0  0  0  0  0  0  0
  1  2  2  0
  1  4  1  0
  2  3  1  0
  3  5  2  0
  4  5  1  0
  5  6  1  0
M  END
>  <PDBID_FRAGID>  (1) 
FRASE_2ZB1_GK4_fragment_4

>  <triplet_in_target>  (1) 
LEUA28PHEA34VALA45

$$$$
FRASE_4ME4_IMD_fragment_1_0_HISA31ALAA51ASPA90
     RDKit          3D

  5  5  0  0  0  0  0  0  0  0999 V2000
   -4.2320    3.8200   60.7000 N   0  0  0  0  0  0  0  0  0  0  0  0
   -4.0160    4.9150   61.4620 C   0  0  0  0  0  0  0  0  0  0  0  0
   -2.8270    4.8250   62.0880 N   0  0  0  0  0  0  0  0  0  0  0  0
   -2.2810    3.6500   61.7280 C   0  0  0  0  0  0  0  0  0  0  0  0
   -3.1560    3.0210   60.8560 C   0  0  0  0  0  0  0  0  0  0  0  0
  1  2  1  0
  1  5  1  0
  2  3  2  0
  3  4  1  0
  4  5  2  0
M  END
>  <PDBID_FRAGID>  (1) 
FRASE_4ME4_IMD_fragment_1

>  <triplet_in_target>  (1) 
HISA31ALAA51ASPA90

$$$$
FRASE_2WTA_VGL_fragment_1_0_ILEA114ASPA120LEUA170
     RDKit          3D

  7  7  0  0  0  0  0  0  0  0999 V2000
    9.5240   10.6820   80.1880 C   0  0  0  0  0  0  0  0  0  0  0  0
    8.7420    9.5820   78.3420 C   0  0  0  0  0  0  0  0  0  0  0  0
    8.1570    8.6130   79.1460 C   0  0  0  0  0  0  0  0  0  0  0  0
   10.3410   11.8390   80.7800 C   0  0  0  0  0  0  0  0  0  0  0  0
    8.9400    9.6970   80.9960 C   0  0  0  0  0  0  0  0  0  0  0  0
    9.4170   10.5900   78.8590 N   0  0  0  0  0  0  0  0  0  0  0  0
    8.2560    8.6830   80.4640 N   0  0  0  0  0  0  0  0  0  0  0  0
  1  4  1  0
  1  5  2  0
  1  6  1  0
  2  3  1  0
  2  6  2  0
  3  7  2  0
  5  7  1  0
M  END
>  <PDBID_FRAGID>  (1) 
FRASE_2WTA_VGL_fragment_1

>  <triplet_in_target>  (1) 
ILEA114ASPA120LEUA170

$$$$
FRASE_3TDA_PN0_fragment_3_0_ILEA106LEUA170ILEA177
     RDKit          3D

  7  7  0  0  0  0  0  0  0  0999 V2000
   19.6480   21.9800   78.7630 C   0  0  0  0  0  0  0  0  0  0  0  0
   17.0210   22.5370   77.9990 C   0  0  0  0  0  0  0  0  0  0  0  0
   17.4290   20.7570   76.2800 O   0  0  0  0  0  0  0  0  0  0  0  0
   17.7930   21.5360   77.3110 C   0  0  0  0  0  0  0  0  0  0  0  0
   19.1040   21.2640   77.6980 C   0  0  0  0  0  0  0  0  0  0  0  0
   18.9420   22.9270   79.4260 N   0  0  0  0  0  0  0  0  0  0  0  0
   17.6630   23.2040   79.0620 C   0  0  0  0  0  0  0  0  0  0  0  0
  1  5  2  0
  1  6  1  0
  2  4  2  0
  2  7  1  0
  3  4  1  0
  4  5  1  0
  6  7  2  0
M  END
>  <PDBID_FRAGID>  (1) 
FRASE_3TDA_PN0_fragment_3

>  <triplet_in_target>  (1) 
ILEA106LEUA170ILEA177

$$$$
FRASE_5CSX_54J_fragment_2_0_PHEA34LEUA49PHEA91
     RDKit          3D

  6  6  0  0  0  0  0  0  0  0999 V2000
    0.6080    7.0050   55.9200 C   0  0  0  0  0  0  0  0  0  0  0  0
    2.6130    6.1930   57.5210 C   0  0  0  0  0  0  0  0  0  0  0  0
    2.1950    5.4110   56.4230 C   0  0  0  0  0  0  0  0  0  0  0  0
    1.2010    5.8520   55.6580 N   0  0  0  0  0  0  0  0  0  0  0  0
    0.9650    7.7740   56.9270 N   0  0  0  0  0  0  0  0  0  0  0  0
    1.9480    7.4160   57.7350 C   0  0  0  0  0  0  0  0  0  0  0  0
  1  4  2  0
  1  5  1  0
  2  3  2  0
  2  6  1  0
  3  4  1  0
  5  6  2  0
M  END
>  <PDBID_FRAGID>  (1) 
FRASE_5CSX_54J_fragment_2

>  <triplet_in_target>  (1) 
PHEA34LEUA49PHEA91

$$$$
FRASE_6K3Q_D0F_fragment_3_0_PHEA55LEUA64ARGA72
     RDKit          3D

 14 14  0  0  0  0  0  0  0  0999 V2000
   16.7540  -11.5490   69.1450 C   0  0  0  0  0  0  0  0  0  0  0  0
   16.9170  -10.7590   68.2450 O   0  0  0  0  0  0  0  0  0  0  0  0
   16.6170  -11.2000   70.4400 N   0  0  0  0  0  0  0  0  0  0  0  0
   15.9990   -9.9920   70.9930 C   0  0  2  0  0  0  0  0  0  0  0  0
   16.0650   -9.9820   72.5090 C   0  0  0  0  0  0  0  0  0  0  0  0
   16.2580   -8.8900   73.1310 O   0  0  0  0  0  0  0  0  0  0  0  0
   15.9170  -11.0760   73.1140 O   0  0  0  0  0  0  0  0  0  0  0  0
   14.5290   -9.9180   70.5480 C   0  0  0  0  0  0  0  0  0  0  0  0
   13.8510   -8.5790   70.8320 C   0  0  0  0  0  0  0  0  0  0  0  0
   14.2540   -7.4040   70.1700 C   0  0  0  0  0  0  0  0  0  0  0  0
   13.6060   -6.1860   70.4370 C   0  0  0  0  0  0  0  0  0  0  0  0
   12.5440   -6.1220   71.3500 C   0  0  0  0  0  0  0  0  0  0  0  0
   12.1380   -7.2980   72.0070 C   0  0  0  0  0  0  0  0  0  0  0  0
   12.7820   -8.5220   71.7460 C   0  0  0  0  0  0  0  0  0  0  0  0
  1  2  2  0
  1  3  1  0
  3  4  1  0
  4  5  1  0
  4  8  1  1
  5  6  2  0
  5  7  1  0
  8  9  1  0
  9 10  2  0
  9 14  1  0
 10 11  1  0
 11 12  2  0
 12 13  1  0
 13 14  2  0
M  END
>  <PDBID_FRAGID>  (1) 
FRASE_6K3Q_D0F_fragment_3

>  <triplet_in_target>  (1) 
PHEA55LEUA64ARGA72

$$$$
FRASE_2CEQ_GIM_fragment_1_0_ALAA30GLUA36SERA48
     RDKit          3D

 14 15  0  0  0  0  0  0  0  0999 V2000
   -2.5390   -0.8280   51.5830 C   0  0  0  0  0  0  0  0  0  0  0  0
   -1.0730   -0.6130   51.7760 C   0  0  1  0  0  0  0  0  0  0  0  0
   -3.4870    0.1340   51.6220 N   0  0  0  0  0  0  0  0  0  0  0  0
   -0.8010    0.8690   52.0450 C   0  0  2  0  0  0  0  0  0  0  0  0
   -1.7410    1.7490   51.2330 C   0  0  1  0  0  0  0  0  0  0  0  0
   -3.1540    1.5760   51.8390 C   0  0  1  0  0  0  0  0  0  0  0  0
   -4.1780    2.5220   51.2100 C   0  0  0  0  0  0  0  0  0  0  0  0
   -4.4760   -1.7700   51.2070 C   0  0  0  0  0  0  0  0  0  0  0  0
   -4.6810   -0.4200   51.3660 C   0  0  0  0  0  0  0  0  0  0  0  0
   -3.1490   -2.0060   51.3420 N   0  0  0  0  0  0  0  0  0  0  0  0
    0.5640    1.1340   51.7010 O   0  0  0  0  0  0  0  0  0  0  0  0
   -0.5810   -1.3580   52.8960 O   0  0  0  0  0  0  0  0  0  0  0  0
   -1.2720    3.0950   51.3340 O   0  0  0  0  0  0  0  0  0  0  0  0
   -4.3550    2.1860   49.8270 O   0  0  0  0  0  0  0  0  0  0  0  0
  1  2  1  0
  1  3  2  0
  1 10  1  0
  2  4  1  0
  2 12  1  1
  3  6  1  0
  3  9  1  0
  4  5  1  0
  4 11  1  6
  5  6  1  0
  5 13  1  1
  6  7  1  6
  7 14  1  0
  8  9  2  0
  8 10  1  0
M  CHG  1   3   1
M  END
>  <PDBID_FRAGID>  (1) 
FRASE_2CEQ_GIM_fragment_1

>  <triplet_in_target>  (1) 
ALAA30GLUA36SERA48

$$$$
FRASE_5NAG_8R5_fragment_2_0_ARGA125VALA132LEUA152
     RDKit          3D

 16 17  0  0  0  0  0  0  0  0999 V2000
   26.9670    8.6100   80.5180 C   0  0  0  0  0  0  0  0  0  0  0  0
   24.7780    8.3640   81.0120 C   0  0  0  0  0  0  0  0  0  0  0  0
   23.4140    8.6750   81.5850 C   0  0  0  0  0  0  0  0  0  0  0  0
   23.3280    8.0140   82.9610 C   0  0  0  0  0  0  0  0  0  0  0  0
   22.0040    8.1450   83.6680 C   0  0  0  0  0  0  0  0  0  0  0  0
   26.0710   10.5590   81.5770 C   0  0  0  0  0  0  0  0  0  0  0  0
   27.5730   12.7140   82.1350 Cl  0  0  0  0  0  0  0  0  0  0  0  0
   27.3210   11.1430   81.4620 C   0  0  0  0  0  0  0  0  0  0  0  0
   25.8920    9.2660   81.1020 C   0  0  0  0  0  0  0  0  0  0  0  0
   25.1340    7.2880   80.4180 N   0  0  0  0  0  0  0  0  0  0  0  0
   26.5200    7.4070   80.0820 O   0  0  0  0  0  0  0  0  0  0  0  0
   28.2230    9.1650   80.3960 C   0  0  0  0  0  0  0  0  0  0  0  0
   28.3990   10.4660   80.8800 C   0  0  0  0  0  0  0  0  0  0  0  0
   29.5780   11.1520   80.8580 O   0  0  0  0  0  0  0  0  0  0  0  0
   30.6750   10.6320   80.1100 C   0  0  0  0  0  0  0  0  0  0  0  0
   31.4140    9.6460   80.9970 C   0  0  0  0  0  0  0  0  0  0  0  0
  1  9  2  0
  1 11  1  0
  1 12  1  0
  2  3  1  0
  2  9  1  0
  2 10  2  0
  3  4  1  0
  4  5  1  0
  6  8  2  0
  6  9  1  0
  7  8  1  0
  8 13  1  0
 10 11  1  0
 12 13  2  0
 13 14  1  0
 14 15  1  0
 15 16  1  0
M  END
>  <PDBID_FRAGID>  (1) 
FRASE_5NAG_8R5_fragment_2

>  <triplet_in_target>  (1) 
ARGA125VALA132LEUA152

$$$$
FRASE_7Z5B_IFT_fragment_3_0_PHEA21LYSA24LEUA92
     RDKit          3D

 10 11  0  0  0  0  0  0  0  0999 V2000
   10.0640    5.8380   57.1890 C   0  0  0  0  0  0  0  0  0  0  0  0
   10.9110    4.9070   58.0640 C   0  0  0  0  0  0  0  0  0  0  0  0
   12.4340    5.1300   57.9650 C   0  0  0  0  0  0  0  0  0  0  0  0
   11.9670    7.5240   57.1840 C   0  0  0  0  0  0  0  0  0  0  0  0
   13.4470    9.5530   56.8320 N   0  0  0  0  0  0  0  0  0  0  0  0
   12.1990    8.8290   56.6930 C   0  0  0  0  0  0  0  0  0  0  0  0
   11.1240    9.2050   56.0460 N   0  0  0  0  0  0  0  0  0  0  0  0
   10.1810    8.2320   56.1080 O   0  0  0  0  0  0  0  0  0  0  0  0
   10.7030    7.1790   56.8210 C   0  0  0  0  0  0  0  0  0  0  0  0
   12.8810    6.6020   58.0090 C   0  0  0  0  0  0  0  0  0  0  0  0
  1  2  1  0
  1  9  1  0
  2  3  1  0
  3 10  1  0
  4  6  1  0
  4  9  2  0
  4 10  1  0
  5  6  1  0
  6  7  2  0
  7  8  1  0
  8  9  1  0
M  END
>  <PDBID_FRAGID>  (1) 
FRASE_7Z5B_IFT_fragment_3

>  <triplet_in_target>  (1) 
PHEA21LYSA24LEUA92

$$$$
FRASE_7Q1B_GOK_fragment_1_0_PHEA115ASPA120LEUA170
     RDKit          3D

  7  7  0  0  0  0  0  0  0  0999 V2000
    9.0560   11.5210   81.2230 C   0  0  0  0  0  0  0  0  0  0  0  0
   10.6970   10.0460   79.6840 C   0  0  0  0  0  0  0  0  0  0  0  0
   11.1540   11.0650   80.5030 C   0  0  0  0  0  0  0  0  0  0  0  0
   11.6480    9.1760   78.9240 C   0  0  0  0  0  0  0  0  0  0  0  0
    8.4880   10.5580   80.4820 N   0  0  0  0  0  0  0  0  0  0  0  0
    9.3230    9.8410   79.7220 C   0  0  0  0  0  0  0  0  0  0  0  0
   10.3640   11.8070   81.2850 N   0  0  0  0  0  0  0  0  0  0  0  0
  1  5  2  0
  1  7  1  0
  2  3  1  0
  2  4  1  0
  2  6  2  0
  3  7  2  0
  5  6  1  0
M  END
>  <PDBID_FRAGID>  (1) 
FRASE_7Q1B_GOK_fragment_1

>  <triplet_in_target>  (1) 
PHEA115ASPA120LEUA170

$$$$
FRASE_5NHL_8XB_fragment_3_0_LEUA94ILEA106ALAA111
     RDKit          3D

  8  8  0  0  0  0  0  0  0  0999 V2000
   10.7990    7.4450   71.2750 C   0  0  0  0  0  0  0  0  0  0  0  0
   11.0550    8.2640   70.1640 C   0  0  0  0  0  0  0  0  0  0  0  0
   10.3520    9.5740   69.8890 C   0  0  0  0  0  0  0  0  0  0  0  0
   12.3680    5.9500   70.5180 C   0  0  0  0  0  0  0  0  0  0  0  0
   12.0290    7.7970   69.2900 C   0  0  0  0  0  0  0  0  0  0  0  0
   11.4430    6.2810   71.4540 N   0  0  0  0  0  0  0  0  0  0  0  0
   12.7010    6.6620   69.4370 N   0  0  0  0  0  0  0  0  0  0  0  0
   13.1230    4.8130   70.7460 N   0  0  0  0  0  0  0  0  0  0  0  0
  1  2  2  0
  1  6  1  0
  2  3  1  0
  2  5  1  0
  4  6  2  0
  4  7  1  0
  4  8  1  0
  5  7  2  0
M  END
>  <PDBID_FRAGID>  (1) 
FRASE_5NHL_8XB_fragment_3

>  <triplet_in_target>  (1) 
LEUA94ILEA106ALAA111

$$$$
FRASE_4NW7_2O5_fragment_1_0_ILEA73PHEA112PHEA117
     RDKit          3D

 11 11  0  0  0  0  0  0  0  0999 V2000
    6.4930    2.9240   82.1050 O   0  0  0  0  0  0  0  0  0  0  0  0
    6.4260    3.2030   80.9170 C   0  0  0  0  0  0  0  0  0  0  0  0
    5.5690    4.1610   80.5140 O   0  0  0  0  0  0  0  0  0  0  0  0
    7.2890    2.4170   79.9570 C   0  0  0  0  0  0  0  0  0  0  0  0
    7.4900    3.2070   78.6700 C   0  0  0  0  0  0  0  0  0  0  0  0
    8.5520    4.1120   78.5480 C   0  0  0  0  0  0  0  0  0  0  0  0
    8.7800    4.7690   77.3240 C   0  0  0  0  0  0  0  0  0  0  0  0
    6.6820    2.9340   77.5560 C   0  0  0  0  0  0  0  0  0  0  0  0
    6.9010    3.5880   76.3430 C   0  0  0  0  0  0  0  0  0  0  0  0
    7.9470    4.5020   76.2140 C   0  0  0  0  0  0  0  0  0  0  0  0
    8.0950    5.2140   75.0470 N   0  0  0  0  0  0  0  0  0  0  0  0
  1  2  2  0
  2  3  1  0
  2  4  1  0
  4  5  1  0
  5  6  2  0
  5  8  1  0
  6  7  1  0
  7 10  2  0
  8  9  2  0
  9 10  1  0
 10 11  1  0
M  END
>  <PDBID_FRAGID>  (1) 
FRASE_4NW7_2O5_fragment_1

>  <triplet_in_target>  (1) 
ILEA73PHEA112PHEA117

$$$$
FRASE_4ZAB_4LW_fragment_1_0_LYSA65PHEA69CYSA74
     RDKit          3D

 12 12  0  0  0  0  0  0  0  0999 V2000
   12.0960   -8.2110   70.4120 F   0  0  0  0  0  0  0  0  0  0  0  0
   13.3930   -8.0710   70.0270 C   0  0  0  0  0  0  0  0  0  0  0  0
   13.8780   -6.7060   70.1650 C   0  0  0  0  0  0  0  0  0  0  0  0
   13.1820   -5.9260   70.9730 O   0  0  0  0  0  0  0  0  0  0  0  0
   14.8410   -6.3010   69.5470 O   0  0  0  0  0  0  0  0  0  0  0  0
   14.1470   -9.1140   69.5500 C   0  0  0  0  0  0  0  0  0  0  0  0
   13.6880  -10.4820   69.3600 C   0  0  0  0  0  0  0  0  0  0  0  0
   14.7160  -11.4240   69.1250 C   0  0  0  0  0  0  0  0  0  0  0  0
   14.3260  -12.6590   68.8850 C   0  0  0  0  0  0  0  0  0  0  0  0
   13.0330  -13.0940   68.8590 C   0  0  0  0  0  0  0  0  0  0  0  0
   11.9590  -12.2100   69.1280 C   0  0  0  0  0  0  0  0  0  0  0  0
   12.4010  -10.8420   69.3300 C   0  0  0  0  0  0  0  0  0  0  0  0
  1  2  1  0
  2  3  1  0
  2  6  2  3
  3  4  2  0
  3  5  1  0
  6  7  1  0
  7  8  2  0
  7 12  1  0
  8  9  1  0
  9 10  2  0
 10 11  1  0
 11 12  2  0
M  END
>  <PDBID_FRAGID>  (1) 
FRASE_4ZAB_4LW_fragment_1

>  <triplet_in_target>  (1) 
LYSA65PHEA69CYSA74

$$$$
FRASE_5L0K_6ZO_fragment_3_0_TYRA110PHEA115LEUA170
     RDKit          3D

 13 13  0  0  0  0  0  0  0  0999 V2000
    5.3130   13.2150   80.3090 C   0  0  0  0  0  0  0  0  0  0  0  0
    4.5300   12.9450   81.1930 O   0  0  0  0  0  0  0  0  0  0  0  0
    6.6570   12.5000   80.2750 C   0  0  0  0  0  0  0  0  0  0  0  0
    6.5250   10.9630   80.3120 C   0  0  0  0  0  0  0  0  0  0  0  0
    7.8090   10.2230   80.2480 N   0  0  0  0  0  0  0  0  0  0  0  0
    8.6260   10.5180   79.0470 C   0  0  0  0  0  0  0  0  0  0  0  0
    9.7680    9.5000   78.9580 C   0  0  0  0  0  0  0  0  0  0  0  0
    8.6490   10.3870   81.4520 C   0  0  0  0  0  0  0  0  0  0  0  0
    9.8870    9.4780   81.4060 C   0  0  0  0  0  0  0  0  0  0  0  0
   10.6530    9.6120   80.1430 N   0  0  0  0  0  0  0  0  0  0  0  0
   12.0310    9.8050   80.0500 C   0  0  0  0  0  0  0  0  0  0  0  0
   12.6820    9.8830   81.0720 O   0  0  0  0  0  0  0  0  0  0  0  0
   12.6760    9.9200   78.8440 O   0  0  0  0  0  0  0  0  0  0  0  0
  1  2  2  0
  1  3  1  0
  3  4  1  0
  4  5  1  0
  5  6  1  0
  5  8  1  0
  6  7  1  0
  7 10  1  0
  8  9  1  0
  9 10  1  0
 10 11  1  0
 11 12  2  0
 11 13  1  0
M  END
>  <PDBID_FRAGID>  (1) 
FRASE_5L0K_6ZO_fragment_3

>  <triplet_in_target>  (1) 
TYRA110PHEA115LEUA170

$$$$
FRASE_5TZA_7OG_fragment_1_0_ILEA156ILEA162PHEA173
     RDKit          3D

  7  7  0  0  0  0  0  0  0  0999 V2000
   27.1580   17.8090   81.4630 C   0  0  0  0  0  0  0  0  0  0  0  0
   27.8100   15.6200   80.7540 N   0  0  0  0  0  0  0  0  0  0  0  0
   26.7500   16.3460   81.3990 C   0  0  0  0  0  0  0  0  0  0  0  0
   29.5760   17.2000   81.4620 C   0  0  0  0  0  0  0  0  0  0  0  0
   27.6660   14.7140   79.7220 C   0  0  0  0  0  0  0  0  0  0  0  0
   28.5030   17.9990   82.1480 C   0  0  0  0  0  0  0  0  0  0  0  0
   29.1320   15.7570   81.3300 C   0  0  0  0  0  0  0  0  0  0  0  0
  1  3  1  0
  1  6  1  0
  2  3  1  0
  2  5  1  0
  2  7  1  0
  4  6  1  0
  4  7  1  0
M  END
>  <PDBID_FRAGID>  (1) 
FRASE_5TZA_7OG_fragment_1

>  <triplet_in_target>  (1) 
ILEA156ILEA162PHEA173

$$$$
FRASE_8GYJ_IMD_fragment_1_0_LEUA59PHEA69ARGA75
     RDKit          3D

  5  5  0  0  0  0  0  0  0  0999 V2000
   14.1300    2.1500   65.5570 N   0  0  0  0  0  0  0  0  0  0  0  0
   13.2580    2.3130   66.5510 C   0  0  0  0  0  0  0  0  0  0  0  0
   12.6580    1.1560   66.7400 N   0  0  0  0  0  0  0  0  0  0  0  0
   12.8970    0.3620   65.6540 C   0  0  0  0  0  0  0  0  0  0  0  0
   13.8220    0.9860   64.9080 C   0  0  0  0  0  0  0  0  0  0  0  0
  1  2  1  0
  1  5  1  0
  2  3  2  0
  3  4  1  0
  4  5  2  0
M  END
>  <PDBID_FRAGID>  (1) 
FRASE_8GYJ_IMD_fragment_1

>  <triplet_in_target>  (1) 
LEUA59PHEA69ARGA75

$$$$
FRASE_4EM0_SAL_fragment_1_0_ILEA106LEUA170ILEA177
     RDKit          3D

 10 10  0  0  0  0  0  0  0  0999 V2000
   19.1860   21.0110   78.1800 C   0  0  0  0  0  0  0  0  0  0  0  0
   18.7870   21.7700   79.0870 O   0  0  0  0  0  0  0  0  0  0  0  0
   20.5060   20.7270   78.0820 O   0  0  0  0  0  0  0  0  0  0  0  0
   18.2330   20.3920   77.1840 C   0  0  0  0  0  0  0  0  0  0  0  0
   16.8020   20.6540   77.2160 C   0  0  0  0  0  0  0  0  0  0  0  0
   15.9610   20.0390   76.2590 C   0  0  0  0  0  0  0  0  0  0  0  0
   16.5010   19.1750   75.2830 C   0  0  0  0  0  0  0  0  0  0  0  0
   17.8820   18.9190   75.2430 C   0  0  0  0  0  0  0  0  0  0  0  0
   18.7490   19.5170   76.1750 C   0  0  0  0  0  0  0  0  0  0  0  0
   16.2480   21.4850   78.1520 O   0  0  0  0  0  0  0  0  0  0  0  0
  1  2  2  0
  1  3  1  0
  1  4  1  0
  4  5  2  0
  4  9  1  0
  5  6  1  0
  5 10  1  0
  6  7  2  0
  7  8  1  0
  8  9  2  0
M  END
>  <PDBID_FRAGID>  (1) 
FRASE_4EM0_SAL_fragment_1

>  <triplet_in_target>  (1) 
ILEA106LEUA170ILEA177

$$$$
FRASE_5SH2_J0O_fragment_2_0_ILEA106PHEA112ILEA177
     RDKit          3D

  5  5  0  0  0  0  0  0  0  0999 V2000
   19.3570   10.6180   71.4900 C   0  0  0  0  0  0  0  0  0  0  0  0
   17.2690    8.8200   69.4680 C   0  0  0  0  0  0  0  0  0  0  0  0
   18.2090   10.0870   70.9000 N   0  0  0  0  0  0  0  0  0  0  0  0
   17.8840   10.2510   69.4490 C   0  0  0  0  0  0  0  0  0  0  0  0
   17.7590    8.6600   70.9520 C   0  0  0  0  0  0  0  0  0  0  0  0
  1  3  1  0
  2  4  1  0
  2  5  1  0
  3  4  1  0
  3  5  1  0
M  END
>  <PDBID_FRAGID>  (1) 
FRASE_5SH2_J0O_fragment_2

>  <triplet_in_target>  (1) 
ILEA106PHEA112ILEA177

$$$$
FRASE_5BKB_FTV_fragment_1_0_ILEA58LYSA65ILEA73
     RDKit          3D

 14 14  0  0  0  0  0  0  0  0999 V2000
   14.1380   -5.2870   69.3480 Cl  0  0  0  0  0  0  0  0  0  0  0  0
   14.5110   -6.9630   69.3000 C   0  0  0  0  0  0  0  0  0  0  0  0
   13.9590   -7.7380   68.3060 C   0  0  0  0  0  0  0  0  0  0  0  0
   14.2490   -9.0840   68.2680 C   0  0  0  0  0  0  0  0  0  0  0  0
   13.5500  -10.0920   67.0290 Cl  0  0  0  0  0  0  0  0  0  0  0  0
   15.1150   -9.6240   69.2030 C   0  0  0  0  0  0  0  0  0  0  0  0
   15.6730   -8.8270   70.2090 C   0  0  0  0  0  0  0  0  0  0  0  0
   15.3690   -7.4690   70.2600 C   0  0  0  0  0  0  0  0  0  0  0  0
   15.9120   -6.5730   71.2430 O   0  0  0  0  0  0  0  0  0  0  0  0
   16.0850   -7.1020   72.5610 C   0  0  2  0  0  0  0  0  0  0  0  0
   15.6060   -6.0180   73.5580 C   0  0  0  0  0  0  0  0  0  0  0  0
   17.5750   -7.3780   72.7420 C   0  0  0  0  0  0  0  0  0  0  0  0
   18.2090   -6.8670   73.7080 O   0  0  0  0  0  0  0  0  0  0  0  0
   18.1600   -8.1060   71.9100 O   0  0  0  0  0  0  0  0  0  0  0  0
  1  2  1  0
  2  3  2  0
  2  8  1  0
  3  4  1  0
  4  5  1  0
  4  6  2  0
  6  7  1  0
  7  8  2  0
  8  9  1  0
  9 10  1  0
 10 11  1  1
 10 12  1  0
 12 13  2  0
 12 14  1  0
M  END
>  <PDBID_FRAGID>  (1) 
FRASE_5BKB_FTV_fragment_1

>  <triplet_in_target>  (1) 
ILEA58LYSA65ILEA73

$$$$
FRASE_2JEW_720_fragment_1_0_LEUA157ASPA163ASNA169
     RDKit          3D

 12 12  0  0  0  0  0  0  0  0999 V2000
   27.9090   19.5720   79.3530 C   0  0  0  0  0  0  0  0  0  0  0  0
   32.2990   19.8370   80.1040 C   0  0  0  0  0  0  0  0  0  0  0  0
   29.8440   20.0710   80.6290 C   0  0  0  0  0  0  0  0  0  0  0  0
   30.9900   19.0950   80.4280 C   0  0  0  0  0  0  0  0  0  0  0  0
   23.9260   18.1190   85.1360 C   0  0  0  0  0  0  0  0  0  0  0  0
   24.1730   17.5930   83.6970 C   0  0  0  0  0  0  0  0  0  0  0  0
   25.1340   18.5240   82.9390 C   0  0  0  0  0  0  0  0  0  0  0  0
   25.3890   17.9470   81.5190 C   0  0  0  0  0  0  0  0  0  0  0  0
   26.5750   18.6460   80.9200 C   0  0  0  0  0  0  0  0  0  0  0  0
   27.7610   18.9800   81.4200 C   0  0  0  0  0  0  0  0  0  0  0  0
   26.7940   19.0880   79.6040 N   0  0  0  0  0  0  0  0  0  0  0  0
   28.5170   19.5100   80.4790 N   0  0  0  0  0  0  0  0  0  0  0  0
  1 11  2  0
  1 12  1  0
  2  4  1  0
  3  4  1  0
  3 12  1  0
  5  6  1  0
  6  7  1  0
  7  8  1  0
  8  9  1  0
  9 10  2  0
  9 11  1  0
 10 12  1  0
M  END
>  <PDBID_FRAGID>  (1) 
FRASE_2JEW_720_fragment_1

>  <triplet_in_target>  (1) 
LEUA157ASPA163ASNA169

$$$$
FRASE_7G08_TLF_fragment_1_0_LEUA38PROA54PHEA88
     RDKit          3D

  9  9  0  0  0  0  0  0  0  0999 V2000
    6.5110   -4.6620   61.1650 C   0  0  0  0  0  0  0  0  0  0  0  0
    6.6420   -4.1570   59.8990 C   0  0  0  0  0  0  0  0  0  0  0  0
    6.1560   -2.8360   59.5640 C   0  0  0  0  0  0  0  0  0  0  0  0
    6.2340   -2.2480   58.2550 N   0  0  0  0  0  0  0  0  0  0  0  0
    5.5530   -2.0300   60.5400 C   0  0  0  0  0  0  0  0  0  0  0  0
    5.0480   -0.6520   60.1380 C   0  0  0  0  0  0  0  0  0  0  0  0
    5.3740   -2.6010   61.7740 C   0  0  0  0  0  0  0  0  0  0  0  0
    4.5890   -1.7210   63.0630 Cl  0  0  0  0  0  0  0  0  0  0  0  0
    5.8160   -3.9180   62.0830 C   0  0  0  0  0  0  0  0  0  0  0  0
  1  2  2  0
  1  9  1  0
  2  3  1  0
  3  4  1  0
  3  5  2  0
  5  6  1  0
  5  7  1  0
  7  8  1  0
  7  9  2  0
M  END
>  <PDBID_FRAGID>  (1) 
FRASE_7G08_TLF_fragment_1

>  <triplet_in_target>  (1) 
LEUA38PROA54PHEA88

$$$$
FRASE_5SEN_IG9_fragment_2_0_ILEA106PHEA112ILEA177
     RDKit          3D

  5  5  0  0  0  0  0  0  0  0999 V2000
   17.4910    8.6270   69.4750 C   0  0  0  0  0  0  0  0  0  0  0  0
   17.7150   10.1550   69.5650 C   0  0  0  0  0  0  0  0  0  0  0  0
   17.7810    8.5910   71.0010 C   0  0  0  0  0  0  0  0  0  0  0  0
   19.3410   10.5900   71.5090 C   0  0  0  0  0  0  0  0  0  0  0  0
   18.4240    9.9090   70.8340 N   0  0  0  0  0  0  0  0  0  0  0  0
  1  2  1  0
  1  3  1  0
  2  5  1  0
  3  5  1  0
  4  5  1  0
M  END
>  <PDBID_FRAGID>  (1) 
FRASE_5SEN_IG9_fragment_2

>  <triplet_in_target>  (1) 
ILEA106PHEA112ILEA177

$$$$
FRASE_5FI4_5XV_fragment_1_0_ILEA58ILEA73ASPA84
     RDKit          3D

  8  8  0  0  0  0  0  0  0  0999 V2000
    8.0320   -2.7250   74.4880 C   0  0  0  0  0  0  0  0  0  0  0  0
    9.2130   -4.7530   74.6450 C   0  0  0  0  0  0  0  0  0  0  0  0
    8.9210   -5.0640   73.3150 C   0  0  0  0  0  0  0  0  0  0  0  0
    7.7600   -3.0380   73.1520 C   0  0  0  0  0  0  0  0  0  0  0  0
    8.7480   -3.6150   75.1970 N   0  0  0  0  0  0  0  0  0  0  0  0
    8.1890   -4.1880   72.6020 N   0  0  0  0  0  0  0  0  0  0  0  0
    9.4280   -6.1760   72.7360 N   0  0  0  0  0  0  0  0  0  0  0  0
    9.9710   -5.6540   75.3490 O   0  0  0  0  0  0  0  0  0  0  0  0
  1  4  2  0
  1  5  1  0
  2  3  1  0
  2  5  2  0
  2  8  1  0
  3  6  2  0
  3  7  1  0
  4  6  1  0
M  END
>  <PDBID_FRAGID>  (1) 
FRASE_5FI4_5XV_fragment_1

>  <triplet_in_target>  (1) 
ILEA58ILEA73ASPA84

$$$$
FRASE_2OU0_MR3_fragment_1_0_LEUA38ILEA58PHEA88
     RDKit          3D

  6  6  0  0  0  0  0  0  0  0999 V2000
    7.5590   -1.8470   59.0660 C   0  0  0  0  0  0  0  0  0  0  0  0
    7.5030   -3.1380   58.3440 N   0  0  0  0  0  0  0  0  0  0  0  0
    8.1930   -3.4240   57.2440 C   0  0  0  0  0  0  0  0  0  0  0  0
    7.8710   -4.6720   56.9000 C   0  0  0  0  0  0  0  0  0  0  0  0
    6.9860   -5.1280   57.7900 C   0  0  0  0  0  0  0  0  0  0  0  0
    6.7470   -4.1760   58.6960 C   0  0  0  0  0  0  0  0  0  0  0  0
  1  2  1  0
  2  3  1  0
  2  6  1  0
  3  4  2  0
  4  5  1  0
  5  6  2  0
M  END
>  <PDBID_FRAGID>  (1) 
FRASE_2OU0_MR3_fragment_1

>  <triplet_in_target>  (1) 
LEUA38ILEA58PHEA88

$$$$
FRASE_3K83_F27_fragment_2_0_ASNA124ILEA156ARGA164
     RDKit          3D

  9  9  0  0  0  0  0  0  0  0999 V2000
   24.8580    7.0290   93.4650 C   0  0  0  0  0  0  0  0  0  0  0  0
   25.6070    7.6860   92.5630 N   0  0  0  0  0  0  0  0  0  0  0  0
   25.4290    9.0050   92.3540 C   0  0  0  0  0  0  0  0  0  0  0  0
   24.4690    9.7120   93.0690 C   0  0  0  0  0  0  0  0  0  0  0  0
   23.6880    9.0500   94.0030 C   0  0  0  0  0  0  0  0  0  0  0  0
   23.8840    7.6930   94.2000 C   0  0  0  0  0  0  0  0  0  0  0  0
   26.2780    9.7150   91.3410 C   0  0  0  0  0  0  0  0  0  0  0  0
   27.1960    9.0840   90.7800 O   0  0  0  0  0  0  0  0  0  0  0  0
   26.0410   10.9170   91.0820 O   0  0  0  0  0  0  0  0  0  0  0  0
  1  2  2  0
  1  6  1  0
  2  3  1  0
  3  4  2  0
  3  7  1  0
  4  5  1  0
  5  6  2  0
  7  8  2  0
  7  9  1  0
M  END
>  <PDBID_FRAGID>  (1) 
FRASE_3K83_F27_fragment_2

>  <triplet_in_target>  (1) 
ASNA124ILEA156ARGA164

$$$$
FRASE_1MUP_TZL_fragment_1_0_VALA76TYRA110PHEA115
     RDKit          3D

  9  9  0  0  0  0  0  0  0  0999 V2000
   17.1100    2.0430   70.8040 S   0  0  0  0  0  0  0  0  0  0  0  0
   17.0940    3.7770   70.5880 C   0  0  0  0  0  0  0  0  0  0  0  0
   16.0060    4.1120   71.1810 N   0  0  0  0  0  0  0  0  0  0  0  0
   15.3400    3.2960   72.3350 C   0  0  0  0  0  0  0  0  0  0  0  0
   15.6840    1.8480   72.0270 C   0  0  0  0  0  0  0  0  0  0  0  0
   17.9220    4.4220   69.5170 C   0  0  1  0  0  0  0  0  0  0  0  0
   17.1520    4.4320   68.2000 C   0  0  0  0  0  0  0  0  0  0  0  0
   17.5520    5.4950   67.1770 C   0  0  0  0  0  0  0  0  0  0  0  0
   18.4260    5.7750   69.8700 C   0  0  0  0  0  0  0  0  0  0  0  0
  1  2  1  0
  1  5  1  0
  2  3  2  0
  2  6  1  0
  3  4  1  0
  4  5  2  0
  6  7  1  0
  6  9  1  1
  7  8  1  0
M  END
>  <PDBID_FRAGID>  (1) 
FRASE_1MUP_TZL_fragment_1

>  <triplet_in_target>  (1) 
VALA76TYRA110PHEA115

$$$$
FRASE_5UX4_3UT_fragment_1_0_VALA132GLYA139SERA145
     RDKit          3D

  6  6  0  0  0  0  0  0  0  0999 V2000
   24.8340   -4.6360   84.3870 C   0  0  0  0  0  0  0  0  0  0  0  0
   26.0970   -4.8700   85.3100 O   0  0  0  0  0  0  0  0  0  0  0  0
   26.7140   -5.9660   85.0030 C   0  0  0  0  0  0  0  0  0  0  0  0
   25.8230   -7.3370   85.1450 C   0  0  0  0  0  0  0  0  0  0  0  0
   24.6150   -7.1920   84.5130 C   0  0  0  0  0  0  0  0  0  0  0  0
   24.2620   -5.8600   83.8640 C   0  0  0  0  0  0  0  0  0  0  0  0
  1  2  1  0
  1  6  1  0
  2  3  1  0
  3  4  1  0
  4  5  1  0
  5  6  2  0
M  END
>  <PDBID_FRAGID>  (1) 
FRASE_5UX4_3UT_fragment_1

>  <triplet_in_target>  (1) 
VALA132GLYA139SERA145

$$$$
FRASE_3ZOS_0LI_fragment_4_0_LEUA28PHEA34VALA45
     RDKit          3D

 10 11  0  0  0  0  0  0  0  0999 V2000
    2.1730   -2.3690   50.6330 N   0  0  0  0  0  0  0  0  0  0  0  0
    1.6030   -4.5330   51.8200 C   0  0  0  0  0  0  0  0  0  0  0  0
    0.5420   -5.2250   52.3490 C   0  0  0  0  0  0  0  0  0  0  0  0
   -0.7210   -4.7000   52.2870 C   0  0  0  0  0  0  0  0  0  0  0  0
   -0.9840   -3.4970   51.6970 N   0  0  0  0  0  0  0  0  0  0  0  0
    0.0510   -2.8020   51.1780 N   0  0  0  0  0  0  0  0  0  0  0  0
    1.3480   -3.2700   51.2280 C   0  0  0  0  0  0  0  0  0  0  0  0
    1.4470   -1.3500   50.2110 C   0  0  0  0  0  0  0  0  0  0  0  0
    0.1180   -1.6300   50.5260 C   0  0  0  0  0  0  0  0  0  0  0  0
   -0.8810   -0.6320   50.2130 C   0  0  0  0  0  0  0  0  0  0  0  0
  1  7  2  0
  1  8  1  0
  2  3  2  0
  2  7  1  0
  3  4  1  0
  4  5  2  0
  5  6  1  0
  6  7  1  0
  6  9  1  0
  8  9  2  0
  9 10  1  0
M  END
>  <PDBID_FRAGID>  (1) 
FRASE_3ZOS_0LI_fragment_4

>  <triplet_in_target>  (1) 
LEUA28PHEA34VALA45

$$$$
FRASE_5TZ1_VT1_fragment_3_0_ILEA73TYRA110PHEA115
     RDKit          3D

 10 10  0  0  0  0  0  0  0  0999 V2000
    7.9380    2.8590   77.6150 C   0  0  1  0  0  0  0  0  0  0  0  0
    7.8690    3.6970   76.5900 F   0  0  0  0  0  0  0  0  0  0  0  0
    9.2140    2.6880   77.9400 F   0  0  0  0  0  0  0  0  0  0  0  0
    7.2120    3.4860   78.8110 C   0  0  0  0  0  0  0  0  0  0  0  0
    5.7590    3.6820   78.4580 C   0  0  0  0  0  0  0  0  0  0  0  0
    5.2320    4.4700   79.6050 N   0  0  0  0  0  0  0  0  0  0  0  0
    4.6640    5.4720   79.5420 N   0  0  0  0  0  0  0  0  0  0  0  0
    4.2960    5.8620   80.6090 N   0  0  0  0  0  0  0  0  0  0  0  0
    4.5590    5.1360   81.4590 N   0  0  0  0  0  0  0  0  0  0  0  0
    5.2010    4.1260   80.8860 C   0  0  0  0  0  0  0  0  0  0  0  0
  1  2  1  6
  1  3  1  0
  1  4  1  0
  4  5  1  0
  5  6  1  0
  6  7  1  0
  6 10  1  0
  7  8  2  0
  8  9  1  0
  9 10  2  0
M  END
>  <PDBID_FRAGID>  (1) 
FRASE_5TZ1_VT1_fragment_3

>  <triplet_in_target>  (1) 
ILEA73TYRA110PHEA115

$$$$
FRASE_7CKN_G56_fragment_1_0_PHEA55LEUA64ARGA72
     RDKit          3D

 11 11  0  0  0  0  0  0  0  0999 V2000
   16.1610  -10.9040   72.5310 O   0  0  0  0  0  0  0  0  0  0  0  0
   16.2710   -9.8280   71.9340 C   0  0  0  0  0  0  0  0  0  0  0  0
   16.4430   -8.7080   72.5010 O   0  0  0  0  0  0  0  0  0  0  0  0
   16.1200   -9.9280   70.4700 C   0  0  0  0  0  0  0  0  0  0  0  0
   14.6030   -9.7450   70.1060 C   0  0  0  0  0  0  0  0  0  0  0  0
   13.9910   -8.4410   70.5000 C   0  0  0  0  0  0  0  0  0  0  0  0
   14.3550   -7.2760   69.8700 C   0  0  0  0  0  0  0  0  0  0  0  0
   13.6620   -6.1220   70.2940 C   0  0  0  0  0  0  0  0  0  0  0  0
   12.6960   -6.1410   71.3290 C   0  0  0  0  0  0  0  0  0  0  0  0
   12.3500   -7.2910   71.9560 C   0  0  0  0  0  0  0  0  0  0  0  0
   13.0070   -8.4300   71.5400 C   0  0  0  0  0  0  0  0  0  0  0  0
  1  2  2  0
  2  3  1  0
  2  4  1  0
  4  5  1  0
  5  6  1  0
  6  7  2  0
  6 11  1  0
  7  8  1  0
  8  9  2  0
  9 10  1  0
 10 11  2  0
M  END
>  <PDBID_FRAGID>  (1) 
FRASE_7CKN_G56_fragment_1

>  <triplet_in_target>  (1) 
PHEA55LEUA64ARGA72

$$$$
FRASE_4XKP_HIS_fragment_2_0_VALA53SERA78GLUA89
     RDKit          3D

 10 10  0  0  0  0  0  0  0  0999 V2000
   -4.2200    0.6730   66.4280 N   0  0  0  0  0  0  0  0  0  0  0  0
   -5.3600    1.5890   66.5360 C   0  0  2  0  0  0  0  0  0  0  0  0
   -5.0090    3.0040   66.0780 C   0  0  0  0  0  0  0  0  0  0  0  0
   -5.8870    3.8320   65.7980 O   0  0  0  0  0  0  0  0  0  0  0  0
   -5.8840    1.6450   67.9730 C   0  0  0  0  0  0  0  0  0  0  0  0
   -4.8990    2.1940   68.9590 C   0  0  0  0  0  0  0  0  0  0  0  0
   -3.5590    2.3470   68.6700 N   0  0  0  0  0  0  0  0  0  0  0  0
   -5.0570    2.6170   70.2370 C   0  0  0  0  0  0  0  0  0  0  0  0
   -2.9360    2.8390   69.7250 C   0  0  0  0  0  0  0  0  0  0  0  0
   -3.8230    3.0090   70.6910 N   0  0  0  0  0  0  0  0  0  0  0  0
  2  1  1  1
  2  3  1  0
  2  5  1  0
  3  4  1  0
  5  6  1  0
  6  7  1  0
  6  8  1  0
  7  9  1  0
  8 10  1  0
  9 10  1  0
M  END
>  <PDBID_FRAGID>  (1) 
FRASE_4XKP_HIS_fragment_2

>  <triplet_in_target>  (1) 
VALA53SERA78GLUA89

$$$$
FRASE_6G1J_IMD_fragment_1_0_VALA76HISA109PHEA115
     RDKit          3D

  5  5  0  0  0  0  0  0  0  0999 V2000
    8.7380    9.4180   81.2350 N   0  0  0  0  0  0  0  0  0  0  0  0
    9.5520    9.3690   80.1220 C   0  0  0  0  0  0  0  0  0  0  0  0
   10.5760    8.5720   80.4570 N   0  0  0  0  0  0  0  0  0  0  0  0
   10.3970    8.1050   81.7740 C   0  0  0  0  0  0  0  0  0  0  0  0
    9.2600    8.6990   82.2760 C   0  0  0  0  0  0  0  0  0  0  0  0
  1  2  1  0
  1  5  1  0
  2  3  2  0
  3  4  1  0
  4  5  2  0
M  END
>  <PDBID_FRAGID>  (1) 
FRASE_6G1J_IMD_fragment_1

>  <triplet_in_target>  (1) 
VALA76HISA109PHEA115

$$$$
FRASE_3E85_BSU_fragment_7_0_PHEA77LEUA92VALA97
     RDKit          3D

 10 10  0  0  0  0  0  0  0  0999 V2000
   12.4720    1.6940   64.7740 N   0  0  0  0  0  0  0  0  0  0  0  0
   13.5840    2.4260   64.5980 C   0  0  0  0  0  0  0  0  0  0  0  0
   13.5520    2.9770   63.3480 N   0  0  0  0  0  0  0  0  0  0  0  0
   14.4790    2.5850   65.4270 O   0  0  0  0  0  0  0  0  0  0  0  0
   11.9460    0.8860   65.8260 C   0  0  0  0  0  0  0  0  0  0  0  0
   12.7350    0.2740   66.7810 C   0  0  0  0  0  0  0  0  0  0  0  0
   12.1150   -0.5250   67.7460 C   0  0  0  0  0  0  0  0  0  0  0  0
   10.7520   -0.7110   67.7440 C   0  0  0  0  0  0  0  0  0  0  0  0
    9.9730   -0.1100   66.7800 C   0  0  0  0  0  0  0  0  0  0  0  0
   10.5730    0.6890   65.8190 C   0  0  0  0  0  0  0  0  0  0  0  0
  1  2  1  0
  1  5  1  0
  2  3  1  0
  2  4  1  0
  5  6  1  0
  5 10  1  0
  6  7  1  0
  7  8  1  0
  8  9  1  0
  9 10  1  0
M  END
>  <PDBID_FRAGID>  (1) 
FRASE_3E85_BSU_fragment_7

>  <triplet_in_target>  (1) 
PHEA77LEUA92VALA97

$$$$
FRASE_7ZZW_KKW_fragment_4_0_PHEA115ASPA120LEUA170
     RDKit          3D

  7  7  0  0  0  0  0  0  0  0999 V2000
   10.3650   11.1970   80.1700 C   0  0  0  0  0  0  0  0  0  0  0  0
   10.0080   11.2620   81.6400 C   0  0  0  0  0  0  0  0  0  0  0  0
    8.2970    9.5960   81.3350 C   0  0  0  0  0  0  0  0  0  0  0  0
    8.6800    9.4400   79.8750 C   0  0  0  0  0  0  0  0  0  0  0  0
   10.9370    9.1650   78.9130 C   0  0  0  0  0  0  0  0  0  0  0  0
   10.0650    9.8600   79.6540 N   0  0  0  0  0  0  0  0  0  0  0  0
    8.5810   10.9560   81.8200 N   0  0  0  0  0  0  0  0  0  0  0  0
  1  2  1  0
  1  6  1  0
  2  7  1  0
  3  4  1  0
  3  7  1  0
  4  6  1  0
  5  6  1  0
M  END
>  <PDBID_FRAGID>  (1) 
FRASE_7ZZW_KKW_fragment_4

>  <triplet_in_target>  (1) 
PHEA115ASPA120LEUA170

$$$$
FRASE_3E85_BSU_fragment_7_0_LEUA22LEUA28LEUA92
     RDKit          3D

 10 10  0  0  0  0  0  0  0  0999 V2000
   11.6050    4.7140   55.7600 N   0  0  0  0  0  0  0  0  0  0  0  0
   11.4320    3.8080   56.7370 C   0  0  0  0  0  0  0  0  0  0  0  0
   12.6260    3.6150   57.3720 N   0  0  0  0  0  0  0  0  0  0  0  0
   10.3730    3.2520   57.0220 O   0  0  0  0  0  0  0  0  0  0  0  0
   10.7690    5.3060   54.7680 C   0  0  0  0  0  0  0  0  0  0  0  0
    9.6330    4.6980   54.2700 C   0  0  0  0  0  0  0  0  0  0  0  0
    8.9070    5.3550   53.2720 C   0  0  0  0  0  0  0  0  0  0  0  0
    9.3160    6.5750   52.7840 C   0  0  0  0  0  0  0  0  0  0  0  0
   10.4590    7.1680   53.2740 C   0  0  0  0  0  0  0  0  0  0  0  0
   11.1870    6.5310   54.2670 C   0  0  0  0  0  0  0  0  0  0  0  0
  1  2  1  0
  1  5  1  0
  2  3  1  0
  2  4  1  0
  5  6  1  0
  5 10  1  0
  6  7  1  0
  7  8  1  0
  8  9  1  0
  9 10  1  0
M  END
>  <PDBID_FRAGID>  (1) 
FRASE_3E85_BSU_fragment_7

>  <triplet_in_target>  (1) 
LEUA22LEUA28LEUA92

$$$$
FRASE_5SI6_JME_fragment_2_0_PHEA112ILEA168ILEA177
     RDKit          3D

  5  5  0  0  0  0  0  0  0  0999 V2000
   21.4460    5.7890   80.2090 C   0  0  0  0  0  0  0  0  0  0  0  0
   21.6550    7.0980   81.0140 C   0  0  0  0  0  0  0  0  0  0  0  0
   22.3360    8.9830   79.3200 C   0  0  0  0  0  0  0  0  0  0  0  0
   21.7690    7.8250   79.7300 N   0  0  0  0  0  0  0  0  0  0  0  0
   21.0460    6.7270   79.0550 C   0  0  0  0  0  0  0  0  0  0  0  0
  1  2  1  0
  1  5  1  0
  2  4  1  0
  3  4  1  0
  4  5  1  0
M  END
>  <PDBID_FRAGID>  (1) 
FRASE_5SI6_JME_fragment_2

>  <triplet_in_target>  (1) 
PHEA112ILEA168ILEA177

$$$$
FRASE_5MZI_FYK_fragment_2_0_ARGA125VALA132LEUA152
     RDKit          3D

 17 18  0  0  0  0  0  0  0  0999 V2000
   26.2250   10.6560   81.6060 C   0  0  0  0  0  0  0  0  0  0  0  0
   27.5440   11.0790   81.5640 C   0  0  0  0  0  0  0  0  0  0  0  0
   28.5530   10.2830   81.0170 C   0  0  0  0  0  0  0  0  0  0  0  0
   28.2500    9.0230   80.5060 C   0  0  0  0  0  0  0  0  0  0  0  0
   24.2840    6.5910   80.0360 O   0  0  0  0  0  0  0  0  0  0  0  0
   25.0380    7.4850   80.3370 C   0  0  0  0  0  0  0  0  0  0  0  0
   24.7660    8.6760   80.9420 N   0  0  0  0  0  0  0  0  0  0  0  0
   23.4850    8.9890   81.5860 C   0  0  0  0  0  0  0  0  0  0  0  0
   23.3800    8.3710   82.9740 C   0  0  0  0  0  0  0  0  0  0  0  0
   22.0090    8.4890   83.5790 C   0  0  0  0  0  0  0  0  0  0  0  0
   21.1990    9.3360   83.2470 O   0  0  0  0  0  0  0  0  0  0  0  0
   21.7730    7.5720   84.4900 O   0  0  0  0  0  0  0  0  0  0  0  0
   26.3930    7.4340   80.0900 O   0  0  0  0  0  0  0  0  0  0  0  0
   26.9370    8.6150   80.5430 C   0  0  0  0  0  0  0  0  0  0  0  0
   25.9410    9.4060   81.0780 C   0  0  0  0  0  0  0  0  0  0  0  0
   27.9400   12.6400   82.2220 Cl  0  0  0  0  0  0  0  0  0  0  0  0
   29.8060   10.8450   80.9910 O   0  0  0  0  0  0  0  0  0  0  0  0
  1  2  2  0
  1 15  1  0
  2  3  1  0
  2 16  1  0
  3  4  2  0
  3 17  1  0
  4 14  1  0
  5  6  2  0
  6  7  1  0
  6 13  1  0
  7  8  1  0
  7 15  1  0
  8  9  1  0
  9 10  1  0
 10 11  2  0
 10 12  1  0
 13 14  1  0
 14 15  2  0
M  END
>  <PDBID_FRAGID>  (1) 
FRASE_5MZI_FYK_fragment_2

>  <triplet_in_target>  (1) 
ARGA125VALA132LEUA152

$$$$
FRASE_5N0D_8F2_fragment_1_0_PHEA34GLNA42VALA45
     RDKit          3D

 12 12  0  0  0  0  0  0  0  0999 V2000
    0.6790   -3.7910   49.5000 C   0  0  0  0  0  0  0  0  0  0  0  0
    0.6720   -2.5980   48.7830 C   0  0  0  0  0  0  0  0  0  0  0  0
   -0.0730   -1.5270   49.2650 C   0  0  0  0  0  0  0  0  0  0  0  0
    0.0200    0.0930   48.5280 S   0  0  2  0  0  0  0  0  0  0  0  0
    0.3180    0.9770   49.6140 O   0  0  0  0  0  0  0  0  0  0  0  0
   -1.1800    0.3270   47.7840 O   0  0  0  0  0  0  0  0  0  0  0  0
    1.2710    0.1400   47.5270 N   0  0  0  0  0  0  0  0  0  0  0  0
   -0.8210   -1.6560   50.4290 C   0  0  0  0  0  0  0  0  0  0  0  0
   -0.8210   -2.8600   51.1260 C   0  0  0  0  0  0  0  0  0  0  0  0
   -0.0510   -3.9230   50.6740 C   0  0  0  0  0  0  0  0  0  0  0  0
    0.0800   -5.1980   51.4600 C   0  0  0  0  0  0  0  0  0  0  0  0
    0.3220   -4.9180   52.6210 O   0  0  0  0  0  0  0  0  0  0  0  0
  1  2  2  0
  1 10  1  0
  2  3  1  0
  3  4  1  0
  3  8  2  0
  4  5  2  0
  4  6  2  0
  4  7  1  6
  8  9  1  0
  9 10  2  0
 10 11  1  0
 11 12  2  0
M  END
>  <PDBID_FRAGID>  (1) 
FRASE_5N0D_8F2_fragment_1

>  <triplet_in_target>  (1) 
PHEA34GLNA42VALA45

$$$$
FRASE_4PD7_ZE8_fragment_1_0_ASNA155SERA160GLYA166
     RDKit          3D

  9  9  0  0  0  0  0  0  0  0999 V2000
   27.9910   14.0460   92.3690 C   0  0  0  0  0  0  0  0  0  0  0  0
   27.3220   13.5970   91.0770 C   0  0  2  0  0  0  0  0  0  0  0  0
   26.6660   12.3680   91.3090 O   0  0  0  0  0  0  0  0  0  0  0  0
   28.4740   13.5090   90.0940 C   0  0  2  0  0  0  0  0  0  0  0  0
   28.2650   12.4830   89.1330 O   0  0  0  0  0  0  0  0  0  0  0  0
   29.6750   13.1920   90.9700 C   0  0  2  0  0  0  0  0  0  0  0  0
   29.3330   13.5890   92.3260 O   0  0  0  0  0  0  0  0  0  0  0  0
   31.0330   13.5850   90.4240 C   0  0  0  0  0  0  0  0  0  0  0  0
   31.1630   14.9060   89.9130 O   0  0  0  0  0  0  0  0  0  0  0  0
  1  2  1  0
  1  7  1  0
  2  3  1  1
  2  4  1  0
  4  5  1  6
  4  6  1  0
  6  7  1  0
  6  8  1  6
  8  9  1  0
M  END
>  <PDBID_FRAGID>  (1) 
FRASE_4PD7_ZE8_fragment_1

>  <triplet_in_target>  (1) 
ASNA155SERA160GLYA166

$$$$
FRASE_5HQX_EDZ_fragment_1_0_ILEA106LEUA170ILEA177
     RDKit          3D

 13 13  0  0  0  0  0  0  0  0999 V2000
   18.5660   19.7650   74.7100 C   0  0  0  0  0  0  0  0  0  0  0  0
   18.8860   21.0990   74.4770 C   0  0  0  0  0  0  0  0  0  0  0  0
   17.2320   19.3520   74.7800 C   0  0  0  0  0  0  0  0  0  0  0  0
   17.8530   22.0230   74.3280 C   0  0  0  0  0  0  0  0  0  0  0  0
   13.8980   20.2930   75.6990 C   0  0  0  0  0  0  0  0  0  0  0  0
   14.7760   19.7670   74.5900 C   0  0  0  0  0  0  0  0  0  0  0  0
   15.5310   23.9280   74.0450 C   0  0  0  0  0  0  0  0  0  0  0  0
   16.2060   20.2780   74.6460 C   0  0  0  0  0  0  0  0  0  0  0  0
   16.5130   21.6100   74.3620 C   0  0  0  0  0  0  0  0  0  0  0  0
   14.3120   24.6380   73.9930 N   0  0  0  0  0  0  0  0  0  0  0  0
   15.4310   22.5210   74.2150 N   0  0  0  0  0  0  0  0  0  0  0  0
   16.6130   24.4910   73.9270 O   0  0  0  0  0  0  0  0  0  0  0  0
   12.5880   20.2370   75.1860 O   0  0  0  0  0  0  0  0  0  0  0  0
  1  2  2  0
  1  3  1  0
  2  4  1  0
  3  8  2  0
  4  9  2  0
  5  6  1  0
  5 13  1  0
  6  8  1  0
  7 10  1  0
  7 11  1  0
  7 12  2  0
  8  9  1  0
  9 11  1  0
M  END
>  <PDBID_FRAGID>  (1) 
FRASE_5HQX_EDZ_fragment_1

>  <triplet_in_target>  (1) 
ILEA106LEUA170ILEA177

$$$$
FRASE_5HZ9_5M8_fragment_1_0_PROA68PHEA115VALA132
     RDKit          3D

 13 14  0  0  0  0  0  0  0  0999 V2000
   18.3570   -7.1340   79.2010 C   0  0  0  0  0  0  0  0  0  0  0  0
   18.0330   -4.8270   79.2420 C   0  0  0  0  0  0  0  0  0  0  0  0
   20.5480   -8.1950   79.7630 C   0  0  0  0  0  0  0  0  0  0  0  0
   19.8250   -3.2410   79.8510 C   0  0  0  0  0  0  0  0  0  0  0  0
   19.7430   -6.9740   79.5900 C   0  0  0  0  0  0  0  0  0  0  0  0
   20.2500   -5.7200   79.8230 C   0  0  0  0  0  0  0  0  0  0  0  0
   19.3890   -4.5810   79.6380 C   0  0  0  0  0  0  0  0  0  0  0  0
   17.5390   -6.0990   79.0330 N   0  0  0  0  0  0  0  0  0  0  0  0
   17.1520   -3.7150   79.0640 C   0  0  0  0  0  0  0  0  0  0  0  0
   18.9440   -2.1940   79.6700 C   0  0  0  0  0  0  0  0  0  0  0  0
   17.6000   -2.4320   79.2760 C   0  0  0  0  0  0  0  0  0  0  0  0
   19.4250   -0.5810   79.9170 Cl  0  0  0  0  0  0  0  0  0  0  0  0
   17.8740   -8.5390   78.9780 C   0  0  0  0  0  0  0  0  0  0  0  0
  1  5  2  0
  1  8  1  0
  1 13  1  0
  2  7  1  0
  2  8  2  0
  2  9  1  0
  3  5  1  0
  4  7  1  0
  4 10  2  0
  5  6  1  0
  6  7  2  0
  9 11  2  0
 10 11  1  0
 10 12  1  0
M  END
>  <PDBID_FRAGID>  (1) 
FRASE_5HZ9_5M8_fragment_1

>  <triplet_in_target>  (1) 
PROA68PHEA115VALA132

$$$$
FRASE_5UFU_85V_fragment_2_0_ARGA72PHEA112LEUA131
     RDKit          3D

 11 12  0  0  0  0  0  0  0  0999 V2000
   17.7360    5.4760   71.1990 C   0  0  0  0  0  0  0  0  0  0  0  0
   19.0560    7.4400   71.6380 C   0  0  0  0  0  0  0  0  0  0  0  0
   17.8360    6.8680   71.2990 C   0  0  0  0  0  0  0  0  0  0  0  0
   20.1910    6.6610   71.8590 C   0  0  0  0  0  0  0  0  0  0  0  0
   20.1120    5.2750   71.7590 C   0  0  0  0  0  0  0  0  0  0  0  0
   18.8960    4.6990   71.4410 C   0  0  0  0  0  0  0  0  0  0  0  0
   18.8340    2.9730   71.3580 Cl  0  0  0  0  0  0  0  0  0  0  0  0
   21.2630    7.4710   72.2100 N   0  0  0  0  0  0  0  0  0  0  0  0
   20.7510    8.6730   72.2100 C   0  0  0  0  0  0  0  0  0  0  0  0
   19.4440    8.7500   71.8750 N   0  0  0  0  0  0  0  0  0  0  0  0
   21.4230    9.7700   72.5390 O   0  0  0  0  0  0  0  0  0  0  0  0
  1  3  2  0
  1  6  1  0
  2  3  1  0
  2  4  2  0
  2 10  1  0
  4  5  1  0
  4  8  1  0
  5  6  2  0
  6  7  1  0
  8  9  1  0
  9 10  2  0
  9 11  1  0
M  END
>  <PDBID_FRAGID>  (1) 
FRASE_5UFU_85V_fragment_2

>  <triplet_in_target>  (1) 
ARGA72PHEA112LEUA131

$$$$
FRASE_5CSX_54J_fragment_2_0_PHEA77LEUA92PHEA98
     RDKit          3D

  6  6  0  0  0  0  0  0  0  0999 V2000
    9.6030   -0.4030   62.5390 C   0  0  0  0  0  0  0  0  0  0  0  0
   11.3720    1.1970   63.7830 C   0  0  0  0  0  0  0  0  0  0  0  0
   10.2660    0.6590   64.4740 C   0  0  0  0  0  0  0  0  0  0  0  0
    9.4160   -0.1280   63.8200 N   0  0  0  0  0  0  0  0  0  0  0  0
   10.6220    0.0680   61.8520 N   0  0  0  0  0  0  0  0  0  0  0  0
   11.5170    0.8530   62.4260 C   0  0  0  0  0  0  0  0  0  0  0  0
  1  4  2  0
  1  5  1  0
  2  3  2  0
  2  6  1  0
  3  4  1  0
  5  6  2  0
M  END
>  <PDBID_FRAGID>  (1) 
FRASE_5CSX_54J_fragment_2

>  <triplet_in_target>  (1) 
PHEA77LEUA92PHEA98

$$$$
FRASE_6CK3_F67_fragment_2_0_LEUA94ILEA106ALAA111
     RDKit          3D

  7  7  0  0  0  0  0  0  0  0999 V2000
   10.3270    6.6620   72.4440 N   0  0  0  0  0  0  0  0  0  0  0  0
   11.1280    6.6570   71.3020 C   0  0  0  0  0  0  0  0  0  0  0  0
   11.2090    7.7000   70.4040 N   0  0  0  0  0  0  0  0  0  0  0  0
   11.9320    5.5360   71.0150 C   0  0  0  0  0  0  0  0  0  0  0  0
   12.7640    5.5380   69.8740 C   0  0  0  0  0  0  0  0  0  0  0  0
   12.7930    6.6170   69.0530 N   0  0  0  0  0  0  0  0  0  0  0  0
   12.0110    7.6820   69.3070 C   0  0  0  0  0  0  0  0  0  0  0  0
  1  2  1  0
  2  3  2  0
  2  4  1  0
  3  7  1  0
  4  5  2  0
  5  6  1  0
  6  7  2  0
M  END
>  <PDBID_FRAGID>  (1) 
FRASE_6CK3_F67_fragment_2

>  <triplet_in_target>  (1) 
LEUA94ILEA106ALAA111

$$$$
FRASE_8SBC_ZTV_fragment_2_0_ILEA114ASPA120LEUA170
     RDKit          3D

  6  6  0  0  0  0  0  0  0  0999 V2000
   10.4270   11.9220   81.0430 C   0  0  0  0  0  0  0  0  0  0  0  0
    9.6330   10.8060   79.2040 C   0  0  0  0  0  0  0  0  0  0  0  0
   10.6790    9.9050   79.2290 C   0  0  0  0  0  0  0  0  0  0  0  0
   11.6280   10.0430   80.2100 C   0  0  0  0  0  0  0  0  0  0  0  0
   11.5140   11.0630   81.1360 C   0  0  0  0  0  0  0  0  0  0  0  0
    9.4920   11.8120   80.0850 N   0  0  0  0  0  0  0  0  0  0  0  0
  1  5  2  0
  1  6  1  0
  2  3  1  0
  2  6  2  0
  3  4  2  0
  4  5  1  0
M  END
>  <PDBID_FRAGID>  (1) 
FRASE_8SBC_ZTV_fragment_2

>  <triplet_in_target>  (1) 
ILEA114ASPA120LEUA170

$$$$
FRASE_5FDX_5X1_fragment_1_0_LEUA28PHEA34VALA45
     RDKit          3D

  6  6  0  0  0  0  0  0  0  0999 V2000
    1.9550   -3.7700   50.9060 C   0  0  0  0  0  0  0  0  0  0  0  0
   -0.2890   -3.4590   50.1750 C   0  0  0  0  0  0  0  0  0  0  0  0
    1.2760   -1.6730   50.1430 C   0  0  0  0  0  0  0  0  0  0  0  0
    0.7160   -4.2610   50.6850 N   0  0  0  0  0  0  0  0  0  0  0  0
    2.2270   -2.4540   50.6330 N   0  0  0  0  0  0  0  0  0  0  0  0
   -0.0320   -2.1010   49.8660 C   0  0  0  0  0  0  0  0  0  0  0  0
  1  4  2  0
  1  5  1  0
  2  4  1  0
  2  6  2  0
  3  5  2  0
  3  6  1  0
M  END
>  <PDBID_FRAGID>  (1) 
FRASE_5FDX_5X1_fragment_1

>  <triplet_in_target>  (1) 
LEUA28PHEA34VALA45

$$$$
FRASE_7B8L_AY4_fragment_1_0_PHEA34PROA39SERA44
     RDKit          3D

  5  5  0  0  0  0  0  0  0  0999 V2000
    0.2100   -3.6350   52.2040 N   0  0  0  0  0  0  0  0  0  0  0  0
   -1.4970   -5.0510   52.0080 C   0  0  0  0  0  0  0  0  0  0  0  0
   -1.1070   -3.6850   52.0220 C   0  0  0  0  0  0  0  0  0  0  0  0
    0.6870   -4.9030   52.3020 N   0  0  0  0  0  0  0  0  0  0  0  0
   -0.3510   -5.7790   52.1790 C   0  0  0  0  0  0  0  0  0  0  0  0
  1  3  1  0
  1  4  1  0
  2  3  2  0
  2  5  1  0
  4  5  2  0
M  END
>  <PDBID_FRAGID>  (1) 
FRASE_7B8L_AY4_fragment_1

>  <triplet_in_target>  (1) 
PHEA34PROA39SERA44

$$$$
FRASE_7MFY_ZFG_fragment_2_0_ILEA106ARGA113GLNA174
     RDKit          3D

  9  9  0  0  0  0  0  0  0  0999 V2000
   16.7010    9.9030   68.0570 C   0  0  0  0  0  0  0  0  0  0  0  0
   17.2450    9.5660   69.4300 C   0  0  0  0  0  0  0  0  0  0  0  0
   17.5850    8.2680   69.7100 C   0  0  0  0  0  0  0  0  0  0  0  0
   17.5010    7.1640   68.6680 C   0  0  0  0  0  0  0  0  0  0  0  0
   18.1760    7.9550   71.0560 C   0  0  0  0  0  0  0  0  0  0  0  0
   18.2610    8.8630   72.1280 C   0  0  0  0  0  0  0  0  0  0  0  0
   18.9450    8.2850   73.2630 C   0  0  0  0  0  0  0  0  0  0  0  0
   19.3540    6.9550   73.0380 C   0  0  0  0  0  0  0  0  0  0  0  0
   18.9220    6.4970   71.4750 S   0  0  0  0  0  0  0  0  0  0  0  0
  1  2  1  0
  2  3  2  3
  3  4  1  0
  3  5  1  0
  5  6  2  0
  5  9  1  0
  6  7  1  0
  7  8  2  0
  8  9  1  0
M  END
>  <PDBID_FRAGID>  (1) 
FRASE_7MFY_ZFG_fragment_2

>  <triplet_in_target>  (1) 
ILEA106ARGA113GLNA174

$$$$
FRASE_6DTX_H9Y_fragment_3_0_ARGA33LEUA38ILEA58
     RDKit          3D

 13 14  0  0  0  0  0  0  0  0999 V2000
    5.8990   -9.7290   58.8690 N   0  0  0  0  0  0  0  0  0  0  0  0
    6.9040   -9.2750   58.5270 C   0  0  0  0  0  0  0  0  0  0  0  0
   10.4440   -6.2190   56.5910 C   0  0  0  0  0  0  0  0  0  0  0  0
    9.6430   -7.2350   57.2020 C   0  0  0  0  0  0  0  0  0  0  0  0
   11.7170   -8.4830   57.6940 C   0  0  0  0  0  0  0  0  0  0  0  0
   12.5030   -7.5430   57.1260 C   0  0  0  0  0  0  0  0  0  0  0  0
   11.8580   -6.3800   56.5600 C   0  0  0  0  0  0  0  0  0  0  0  0
    8.2630   -7.4650   57.4400 C   0  0  0  0  0  0  0  0  0  0  0  0
    9.4370   -9.2130   58.2740 C   0  0  0  0  0  0  0  0  0  0  0  0
    8.1750   -8.7180   58.1120 C   0  0  0  0  0  0  0  0  0  0  0  0
   13.8380   -7.6480   57.0710 F   0  0  0  0  0  0  0  0  0  0  0  0
   10.3430   -8.3230   57.7240 N   0  0  0  0  0  0  0  0  0  0  0  0
    9.8150   -5.1110   56.0540 O   0  0  0  0  0  0  0  0  0  0  0  0
  1  2  3  0
  2 10  1  0
  3  4  1  0
  3  7  2  0
  3 13  1  0
  4  8  2  0
  4 12  1  0
  5  6  2  0
  5 12  1  0
  6  7  1  0
  6 11  1  0
  8 10  1  0
  9 10  2  0
  9 12  1  0
M  END
>  <PDBID_FRAGID>  (1) 
FRASE_6DTX_H9Y_fragment_3

>  <triplet_in_target>  (1) 
ARGA33LEUA38ILEA58

$$$$
FRASE_7QWK_G41_fragment_3_0_LEUA59ILEA73ASPA84
     RDKit          3D

  6  6  0  0  0  0  0  0  0  0999 V2000
    8.0960   -3.6010   75.7600 C   0  0  0  0  0  0  0  0  0  0  0  0
    8.2250   -5.8150   74.8690 C   0  0  0  0  0  0  0  0  0  0  0  0
    8.1790   -4.9720   75.9610 C   0  0  0  0  0  0  0  0  0  0  0  0
    8.1890   -5.3910   73.6040 N   0  0  0  0  0  0  0  0  0  0  0  0
    8.1060   -4.0730   73.4150 C   0  0  0  0  0  0  0  0  0  0  0  0
    8.0550   -3.1550   74.4450 C   0  0  0  0  0  0  0  0  0  0  0  0
  1  3  2  0
  1  6  1  0
  2  3  1  0
  2  4  2  0
  4  5  1  0
  5  6  2  0
M  END
>  <PDBID_FRAGID>  (1) 
FRASE_7QWK_G41_fragment_3

>  <triplet_in_target>  (1) 
LEUA59ILEA73ASPA84

$$$$
FRASE_5ORR_A5Q_fragment_2_0_ILEA114LEUA123LEUA170
     RDKit          3D

  6  6  0  0  0  0  0  0  0  0999 V2000
   11.3400    9.4850   82.1170 C   0  0  0  0  0  0  0  0  0  0  0  0
   10.1640    9.8850   81.5010 C   0  0  0  0  0  0  0  0  0  0  0  0
    9.3290   10.8370   81.9190 N   0  0  0  0  0  0  0  0  0  0  0  0
   11.8960    8.5020   81.3930 N   0  0  0  0  0  0  0  0  0  0  0  0
   11.0810    8.2410   80.2790 N   0  0  0  0  0  0  0  0  0  0  0  0
    9.9510    9.0770   80.2680 S   0  0  0  0  0  0  0  0  0  0  0  0
  1  2  2  0
  1  4  1  0
  2  3  1  0
  2  6  1  0
  4  5  2  0
  5  6  1  0
M  END
>  <PDBID_FRAGID>  (1) 
FRASE_5ORR_A5Q_fragment_2

>  <triplet_in_target>  (1) 
ILEA114LEUA123LEUA170

$$$$
FRASE_2XYJ_WLM_fragment_2_0_ARGA125LEUA152LEUA157
     RDKit          3D

 12 12  0  0  0  0  0  0  0  0999 V2000
   24.4790    2.9120   79.7220 C   0  0  0  0  0  0  0  0  0  0  0  0
   24.2380    3.4810   81.1270 C   0  0  0  0  0  0  0  0  0  0  0  0
   23.9660    4.9710   81.1220 C   0  0  0  0  0  0  0  0  0  0  0  0
   24.9020    5.8770   81.6300 C   0  0  0  0  0  0  0  0  0  0  0  0
   22.7690    5.4670   80.6080 C   0  0  0  0  0  0  0  0  0  0  0  0
   24.6400    7.2470   81.6500 C   0  0  0  0  0  0  0  0  0  0  0  0
   22.4980    6.8300   80.6280 C   0  0  0  0  0  0  0  0  0  0  0  0
   23.4290    7.7210   81.1490 C   0  0  0  0  0  0  0  0  0  0  0  0
   23.0420    9.4630   81.2160 S   0  0  2  0  0  0  0  0  0  0  0  0
   22.5690   10.0670   79.6550 N   0  0  0  0  0  0  0  0  0  0  0  0
   24.2090   10.2260   81.5960 O   0  0  0  0  0  0  0  0  0  0  0  0
   21.8360    9.6040   81.9820 O   0  0  0  0  0  0  0  0  0  0  0  0
  1  2  1  0
  2  3  1  0
  3  4  2  0
  3  5  1  0
  4  6  1  0
  5  7  2  0
  6  8  2  0
  7  8  1  0
  8  9  1  0
  9 10  1  6
  9 11  2  0
  9 12  2  0
M  END
>  <PDBID_FRAGID>  (1) 
FRASE_2XYJ_WLM_fragment_2

>  <triplet_in_target>  (1) 
ARGA125LEUA152LEUA157

$$$$
FRASE_1LH6_NIO_fragment_1_0_PHEA69VALA76PHEA117
     RDKit          3D

  9  9  0  0  0  0  0  0  0  0999 V2000
    9.2900   -5.5530   74.7780 N   0  0  0  0  0  0  0  0  0  0  0  0
    9.1200   -4.5620   75.7890 C   0  0  0  0  0  0  0  0  0  0  0  0
   10.1060   -3.7460   75.9970 C   0  0  0  0  0  0  0  0  0  0  0  0
   11.2170   -4.0050   75.2090 C   0  0  0  0  0  0  0  0  0  0  0  0
   11.3260   -4.9810   74.2000 C   0  0  0  0  0  0  0  0  0  0  0  0
   10.3520   -5.7560   73.9920 C   0  0  0  0  0  0  0  0  0  0  0  0
   10.0010   -2.6690   77.1090 C   0  0  0  0  0  0  0  0  0  0  0  0
    8.9920   -2.5140   77.7700 O   0  0  0  0  0  0  0  0  0  0  0  0
   10.8990   -2.0860   77.4640 O   0  0  0  0  0  0  0  0  0  0  0  0
  1  2  2  0
  1  6  1  0
  2  3  1  0
  3  4  2  0
  3  7  1  0
  4  5  1  0
  5  6  2  0
  7  8  2  0
  7  9  1  0
M  END
>  <PDBID_FRAGID>  (1) 
FRASE_1LH6_NIO_fragment_1

>  <triplet_in_target>  (1) 
PHEA69VALA76PHEA117

$$$$
FRASE_1H3F_TYE_fragment_1_0_GLUA159ASPA163ILEA168
     RDKit          3D

 12 12  0  0  0  0  0  0  0  0999 V2000
   28.2170    9.1860   92.9540 C   0  0  0  0  0  0  0  0  0  0  0  0
   25.7630    8.7890   92.7740 N   0  0  0  0  0  0  0  0  0  0  0  0
   29.3910    8.8140   92.6950 O   0  0  0  0  0  0  0  0  0  0  0  0
   27.0920    8.5030   92.1730 C   0  0  1  0  0  0  0  0  0  0  0  0
   27.1140    8.9660   90.7100 C   0  0  0  0  0  0  0  0  0  0  0  0
   26.7700   10.4260   90.5150 C   0  0  0  0  0  0  0  0  0  0  0  0
   25.7630   14.4610   90.0900 O   0  0  0  0  0  0  0  0  0  0  0  0
   26.1000   13.1350   90.2140 C   0  0  0  0  0  0  0  0  0  0  0  0
   27.6410   11.4330   90.9430 C   0  0  0  0  0  0  0  0  0  0  0  0
   25.5570   10.8050   89.9270 C   0  0  0  0  0  0  0  0  0  0  0  0
   27.3140   12.7800   90.7960 C   0  0  0  0  0  0  0  0  0  0  0  0
   25.2190   12.1540   89.7750 C   0  0  0  0  0  0  0  0  0  0  0  0
  1  3  1  0
  1  4  1  0
  4  2  1  1
  4  5  1  0
  5  6  1  0
  6  9  2  0
  6 10  1  0
  7  8  1  0
  8 11  2  0
  8 12  1  0
  9 11  1  0
 10 12  2  0
M  END
>  <PDBID_FRAGID>  (1) 
FRASE_1H3F_TYE_fragment_1

>  <triplet_in_target>  (1) 
GLUA159ASPA163ILEA168

$$$$
FRASE_6Q4I_HGK_fragment_1_0_ARGA75ILEA114ASPA118
     RDKit          3D

 11 11  0  0  0  0  0  0  0  0999 V2000
    8.4430    6.6960   79.6140 C   0  0  0  0  0  0  0  0  0  0  0  0
    9.4750    7.4240   80.1500 C   0  0  0  0  0  0  0  0  0  0  0  0
    9.2650    8.7290   80.4600 C   0  0  0  0  0  0  0  0  0  0  0  0
    8.0270    9.3000   80.3650 C   0  0  0  0  0  0  0  0  0  0  0  0
    6.9820    8.5450   79.8850 C   0  0  0  0  0  0  0  0  0  0  0  0
    7.1640    7.2190   79.5680 C   0  0  0  0  0  0  0  0  0  0  0  0
    4.3800    4.8440   79.6730 O   0  0  0  0  0  0  0  0  0  0  0  0
    5.3600    5.4810   80.0550 C   0  0  0  0  0  0  0  0  0  0  0  0
    5.7660    5.4490   81.2380 O   0  0  0  0  0  0  0  0  0  0  0  0
    6.0300    6.3880   79.0430 C   0  0  0  0  0  0  0  0  0  0  0  0
   10.2770    9.4880   81.0360 O   0  0  0  0  0  0  0  0  0  0  0  0
  1  2  2  0
  1  6  1  0
  2  3  1  0
  3  4  2  0
  3 11  1  0
  4  5  1  0
  5  6  2  0
  6 10  1  0
  7  8  2  0
  8  9  1  0
  8 10  1  0
M  END
>  <PDBID_FRAGID>  (1) 
FRASE_6Q4I_HGK_fragment_1

>  <triplet_in_target>  (1) 
ARGA75ILEA114ASPA118

$$$$
FRASE_5HMR_FDZ_fragment_2_0_ILEA114LEUA123LEUA170
     RDKit          3D

  9  9  0  0  0  0  0  0  0  0999 V2000
    7.7150    5.5770   82.7290 N   0  0  0  0  0  0  0  0  0  0  0  0
    8.2950    6.8620   82.5850 C   0  0  0  0  0  0  0  0  0  0  0  0
    7.6780    7.8880   82.8470 O   0  0  0  0  0  0  0  0  0  0  0  0
    9.6380    6.9230   82.1590 N   0  0  0  0  0  0  0  0  0  0  0  0
   10.2720    8.1880   82.0090 C   0  0  0  0  0  0  0  0  0  0  0  0
   11.5700    8.4510   81.5880 C   0  0  0  0  0  0  0  0  0  0  0  0
   11.8480    9.7550   81.5370 N   0  0  0  0  0  0  0  0  0  0  0  0
   10.8780   10.6110   81.8940 N   0  0  0  0  0  0  0  0  0  0  0  0
    9.6030    9.7320   82.3220 S   0  0  0  0  0  0  0  0  0  0  0  0
  1  2  1  0
  2  3  2  0
  2  4  1  0
  4  5  1  0
  5  6  2  0
  5  9  1  0
  6  7  1  0
  7  8  2  0
  8  9  1  0
M  END
>  <PDBID_FRAGID>  (1) 
FRASE_5HMR_FDZ_fragment_2

>  <triplet_in_target>  (1) 
ILEA114LEUA123LEUA170

$$$$
FRASE_7XJ0_EQK_fragment_3_0_PHEA69PHEA115VALA132
     RDKit          3D

  7  7  0  0  0  0  0  0  0  0999 V2000
   18.1640   -2.1200   81.4950 C   0  0  0  0  0  0  0  0  0  0  0  0
   16.7620   -2.2180   81.2150 C   0  0  0  0  0  0  0  0  0  0  0  0
   15.6140   -1.6050   81.9770 C   0  0  0  0  0  0  0  0  0  0  0  0
   17.8350   -3.5150   79.5330 C   0  0  0  0  0  0  0  0  0  0  0  0
   16.5780   -3.1030   79.9670 N   0  0  0  0  0  0  0  0  0  0  0  0
   18.0310   -4.3100   78.3610 N   0  0  0  0  0  0  0  0  0  0  0  0
   18.8920   -2.9060   80.4500 S   0  0  0  0  0  0  0  0  0  0  0  0
  1  2  2  0
  1  7  1  0
  2  3  1  0
  2  5  1  0
  4  5  2  0
  4  6  1  0
  4  7  1  0
M  END
>  <PDBID_FRAGID>  (1) 
FRASE_7XJ0_EQK_fragment_3

>  <triplet_in_target>  (1) 
PHEA69PHEA115VALA132

$$$$
FRASE_5CSX_54J_fragment_2_0_PHEA55LEUA61PHEA91
     RDKit          3D

  6  6  0  0  0  0  0  0  0  0999 V2000
   13.8250    0.2440   67.6020 C   0  0  0  0  0  0  0  0  0  0  0  0
   11.2770    1.1100   67.6450 C   0  0  0  0  0  0  0  0  0  0  0  0
   11.6350   -0.1270   68.2210 C   0  0  0  0  0  0  0  0  0  0  0  0
   12.9070   -0.5160   68.1780 N   0  0  0  0  0  0  0  0  0  0  0  0
   13.5430    1.4090   67.0580 N   0  0  0  0  0  0  0  0  0  0  0  0
   12.3060    1.8740   67.0620 C   0  0  0  0  0  0  0  0  0  0  0  0
  1  4  2  0
  1  5  1  0
  2  3  2  0
  2  6  1  0
  3  4  1  0
  5  6  2  0
M  END
>  <PDBID_FRAGID>  (1) 
FRASE_5CSX_54J_fragment_2

>  <triplet_in_target>  (1) 
PHEA55LEUA61PHEA91

$$$$
FRASE_5D7C_57W_fragment_2_0_ILEA27LEUA94SERA99
     RDKit          3D

  6  6  0  0  0  0  0  0  0  0999 V2000
    9.1580    6.3810   58.8640 C   0  0  0  0  0  0  0  0  0  0  0  0
    9.3240    7.3410   57.8940 N   0  0  0  0  0  0  0  0  0  0  0  0
   10.3960    7.4890   57.0520 C   0  0  0  0  0  0  0  0  0  0  0  0
   11.3690    6.5450   57.2150 C   0  0  0  0  0  0  0  0  0  0  0  0
   11.3160    5.6060   58.2260 C   0  0  0  0  0  0  0  0  0  0  0  0
   10.2160    5.5410   59.1160 C   0  0  0  0  0  0  0  0  0  0  0  0
  1  2  2  0
  1  6  1  0
  2  3  1  0
  3  4  2  0
  4  5  1  0
  5  6  2  0
M  END
>  <PDBID_FRAGID>  (1) 
FRASE_5D7C_57W_fragment_2

>  <triplet_in_target>  (1) 
ILEA27LEUA94SERA99

$$$$
FRASE_2FDU_D1G_fragment_2_0_PHEA21ILEA27LEUA94
     RDKit          3D

  9  9  0  0  0  0  0  0  0  0999 V2000
   12.0240    8.5270   57.6850 C   0  0  0  0  0  0  0  0  0  0  0  0
   12.8010    8.3840   58.8000 C   0  0  0  0  0  0  0  0  0  0  0  0
   12.7660    6.9940   59.1610 C   0  0  0  0  0  0  0  0  0  0  0  0
   11.9590    6.3730   58.2220 C   0  0  0  0  0  0  0  0  0  0  0  0
   11.4880    7.2760   57.3050 O   0  0  0  0  0  0  0  0  0  0  0  0
   11.5610    4.9550   58.0330 C   0  0  0  0  0  0  0  0  0  0  0  0
   12.3570    4.2570   57.0070 N   0  0  0  0  0  0  0  0  0  0  0  0
   12.2150    4.8890   55.7590 C   0  0  0  0  0  0  0  0  0  0  0  0
   13.7430    4.1820   57.3160 C   0  0  0  0  0  0  0  0  0  0  0  0
  1  2  2  0
  1  5  1  0
  2  3  1  0
  3  4  2  0
  4  5  1  0
  4  6  1  0
  6  7  1  0
  7  8  1  0
  7  9  1  0
M  END
>  <PDBID_FRAGID>  (1) 
FRASE_2FDU_D1G_fragment_2

>  <triplet_in_target>  (1) 
PHEA21ILEA27LEUA94

$$$$
FRASE_2F7A_BEZ_fragment_1_0_LEUA29GLUA36PHEA88
     RDKit          3D

  9  9  0  0  0  0  0  0  0  0999 V2000
   -1.3140   -0.1500   51.1010 C   0  0  0  0  0  0  0  0  0  0  0  0
   -0.7590    0.2850   52.3080 O   0  0  0  0  0  0  0  0  0  0  0  0
   -2.0540   -1.2420   51.0320 O   0  0  0  0  0  0  0  0  0  0  0  0
   -1.0780    0.6790   49.8920 C   0  0  0  0  0  0  0  0  0  0  0  0
   -1.0280    2.0550   50.0130 C   0  0  0  0  0  0  0  0  0  0  0  0
   -0.8200    2.8430   48.8940 C   0  0  0  0  0  0  0  0  0  0  0  0
   -0.6670    2.2310   47.6610 C   0  0  0  0  0  0  0  0  0  0  0  0
   -0.7080    0.8520   47.5440 C   0  0  0  0  0  0  0  0  0  0  0  0
   -0.9180    0.0680   48.6650 C   0  0  0  0  0  0  0  0  0  0  0  0
  1  2  2  0
  1  3  1  0
  1  4  1  0
  4  5  2  0
  4  9  1  0
  5  6  1  0
  6  7  2  0
  7  8  1  0
  8  9  2  0
M  END
>  <PDBID_FRAGID>  (1) 
FRASE_2F7A_BEZ_fragment_1

>  <triplet_in_target>  (1) 
LEUA29GLUA36PHEA88

$$$$
FRASE_4PB1_RBV_fragment_1_0_ASNA155SERA160GLYA166
     RDKit          3D

  9  9  0  0  0  0  0  0  0  0999 V2000
   28.3580   14.0570   92.3090 C   0  0  0  0  0  0  0  0  0  0  0  0
   27.5460   13.7210   91.0690 C   0  0  2  0  0  0  0  0  0  0  0  0
   26.7500   12.5600   91.3080 O   0  0  0  0  0  0  0  0  0  0  0  0
   28.5750   13.3990   90.0100 C   0  0  2  0  0  0  0  0  0  0  0  0
   28.1120   12.3630   89.1390 O   0  0  0  0  0  0  0  0  0  0  0  0
   29.7910   12.9470   90.7980 C   0  0  2  0  0  0  0  0  0  0  0  0
   29.6860   13.5690   92.0820 O   0  0  0  0  0  0  0  0  0  0  0  0
   31.0840   13.3580   90.1110 C   0  0  0  0  0  0  0  0  0  0  0  0
   31.0410   14.7600   89.8270 O   0  0  0  0  0  0  0  0  0  0  0  0
  1  2  1  0
  1  7  1  0
  2  3  1  1
  2  4  1  0
  4  5  1  6
  4  6  1  0
  6  7  1  0
  6  8  1  6
  8  9  1  0
M  END
>  <PDBID_FRAGID>  (1) 
FRASE_4PB1_RBV_fragment_1

>  <triplet_in_target>  (1) 
ASNA155SERA160GLYA166

$$$$
FRASE_4XKQ_HIS_fragment_2_0_VALA53SERA78GLUA89
     RDKit          3D

 10 10  0  0  0  0  0  0  0  0999 V2000
   -4.0510    0.6840   66.4780 N   0  0  0  0  0  0  0  0  0  0  0  0
   -5.2830    1.4440   66.4360 C   0  0  2  0  0  0  0  0  0  0  0  0
   -5.0110    2.8510   65.8860 C   0  0  0  0  0  0  0  0  0  0  0  0
   -5.9360    3.5070   65.3780 O   0  0  0  0  0  0  0  0  0  0  0  0
   -5.9030    1.5300   67.8280 C   0  0  0  0  0  0  0  0  0  0  0  0
   -5.0300    2.2260   68.8180 C   0  0  0  0  0  0  0  0  0  0  0  0
   -3.6890    2.4730   68.5820 N   0  0  0  0  0  0  0  0  0  0  0  0
   -5.2950    2.7220   70.0470 C   0  0  0  0  0  0  0  0  0  0  0  0
   -3.1700    3.0970   69.6250 C   0  0  0  0  0  0  0  0  0  0  0  0
   -4.1210    3.2460   70.5340 N   0  0  0  0  0  0  0  0  0  0  0  0
  2  1  1  1
  2  3  1  0
  2  5  1  0
  3  4  1  0
  5  6  1  0
  6  7  1  0
  6  8  1  0
  7  9  1  0
  8 10  1  0
  9 10  1  0
M  END
>  <PDBID_FRAGID>  (1) 
FRASE_4XKQ_HIS_fragment_2

>  <triplet_in_target>  (1) 
VALA53SERA78GLUA89

$$$$
FRASE_4XKN_HIS_fragment_2_0_VALA53SERA78GLUA89
     RDKit          3D

 10 10  0  0  0  0  0  0  0  0999 V2000
   -4.3330    0.7710   66.6020 N   0  0  0  0  0  0  0  0  0  0  0  0
   -5.4770    1.6920   66.6820 C   0  0  2  0  0  0  0  0  0  0  0  0
   -5.1440    3.0500   66.0720 C   0  0  0  0  0  0  0  0  0  0  0  0
   -6.0540    3.8260   65.7490 O   0  0  0  0  0  0  0  0  0  0  0  0
   -5.9450    1.8630   68.1490 C   0  0  0  0  0  0  0  0  0  0  0  0
   -4.8910    2.3500   69.0940 C   0  0  0  0  0  0  0  0  0  0  0  0
   -3.5600    2.5060   68.7370 N   0  0  0  0  0  0  0  0  0  0  0  0
   -4.9590    2.7200   70.4000 C   0  0  0  0  0  0  0  0  0  0  0  0
   -2.8690    2.9310   69.7690 C   0  0  0  0  0  0  0  0  0  0  0  0
   -3.6970    3.0760   70.7990 N   0  0  0  0  0  0  0  0  0  0  0  0
  2  1  1  1
  2  3  1  0
  2  5  1  0
  3  4  1  0
  5  6  1  0
  6  7  1  0
  6  8  1  0
  7  9  1  0
  8 10  1  0
  9 10  1  0
M  END
>  <PDBID_FRAGID>  (1) 
FRASE_4XKN_HIS_fragment_2

>  <triplet_in_target>  (1) 
VALA53SERA78GLUA89

$$$$
FRASE_2R43_G3G_fragment_1_0_ILEA114ASPA120LEUA170
     RDKit          3D

 12 12  0  0  0  0  0  0  0  0999 V2000
    9.5580    9.7280   80.6550 C   0  0  0  0  0  0  0  0  0  0  0  0
   10.7330    9.9340   79.9100 C   0  0  0  0  0  0  0  0  0  0  0  0
   10.7520   10.9500   78.9170 C   0  0  0  0  0  0  0  0  0  0  0  0
    9.5700   11.7150   78.7060 C   0  0  0  0  0  0  0  0  0  0  0  0
    8.3850   11.4950   79.4520 C   0  0  0  0  0  0  0  0  0  0  0  0
    8.3800   10.4900   80.4480 C   0  0  0  0  0  0  0  0  0  0  0  0
    6.9700   12.5240   79.0790 S   0  0  1  0  0  0  0  0  0  0  0  0
    6.3080   12.7390   80.3640 O   0  0  0  0  0  0  0  0  0  0  0  0
    7.4810   13.5910   78.2590 O   0  0  0  0  0  0  0  0  0  0  0  0
    6.0590   11.3270   78.2290 N   0  0  0  0  0  0  0  0  0  0  0  0
    5.1070   10.4690   78.9780 C   0  0  0  0  0  0  0  0  0  0  0  0
   11.8390    9.1910   80.1440 N   0  0  0  0  0  0  0  0  0  0  0  0
  1  2  2  0
  1  6  1  0
  2  3  1  0
  2 12  1  0
  3  4  2  0
  4  5  1  0
  5  6  2  0
  5  7  1  0
  7  8  2  0
  7  9  2  0
  7 10  1  6
 10 11  1  0
M  END
>  <PDBID_FRAGID>  (1) 
FRASE_2R43_G3G_fragment_1

>  <triplet_in_target>  (1) 
ILEA114ASPA120LEUA170

$$$$
FRASE_7ZZT_KJF_fragment_2_0_PHEA115ASPA120LEUA170
     RDKit          3D

  6  6  0  0  0  0  0  0  0  0999 V2000
   11.0480    9.0060   78.8060 C   0  0  0  0  0  0  0  0  0  0  0  0
   10.2860   10.7250   80.4240 C   0  0  0  0  0  0  0  0  0  0  0  0
    9.2910   10.5980   81.5370 C   0  0  0  0  0  0  0  0  0  0  0  0
    8.1910    9.7460   80.9560 C   0  0  0  0  0  0  0  0  0  0  0  0
   10.1470    9.4490   79.7010 N   0  0  0  0  0  0  0  0  0  0  0  0
    8.9330    8.7250   80.1070 C   0  0  0  0  0  0  0  0  0  0  0  0
  1  5  1  0
  2  3  1  0
  2  5  1  0
  3  4  1  0
  4  6  1  0
  5  6  1  0
M  END
>  <PDBID_FRAGID>  (1) 
FRASE_7ZZT_KJF_fragment_2

>  <triplet_in_target>  (1) 
PHEA115ASPA120LEUA170

$$$$
FRASE_2FDV_D2G_fragment_2_0_PHEA98THRA101ILEA106
     RDKit          3D

  8  8  0  0  0  0  0  0  0  0999 V2000
   20.7860   13.0760   64.5760 C   0  0  0  0  0  0  0  0  0  0  0  0
   19.5370   12.9770   65.0910 C   0  0  0  0  0  0  0  0  0  0  0  0
   19.1260   14.3240   65.4590 C   0  0  0  0  0  0  0  0  0  0  0  0
   20.1750   15.1370   65.1220 C   0  0  0  0  0  0  0  0  0  0  0  0
   21.2200   14.4020   64.5710 O   0  0  0  0  0  0  0  0  0  0  0  0
   20.4030   16.6470   65.2410 C   0  0  0  0  0  0  0  0  0  0  0  0
   20.0930   17.4130   64.0420 N   0  0  0  0  0  0  0  0  0  0  0  0
   19.2550   16.9170   63.0150 C   0  0  0  0  0  0  0  0  0  0  0  0
  1  2  2  0
  1  5  1  0
  2  3  1  0
  3  4  2  0
  4  5  1  0
  4  6  1  0
  6  7  1  0
  7  8  1  0
M  END
>  <PDBID_FRAGID>  (1) 
FRASE_2FDV_D2G_fragment_2

>  <triplet_in_target>  (1) 
PHEA98THRA101ILEA106

$$$$
FRASE_6DYW_OS5_fragment_2_0_ILEA114ASPA120LEUA170
     RDKit          3D

 11 12  0  0  0  0  0  0  0  0999 V2000
    9.5620    7.5400   78.6660 C   0  0  0  0  0  0  0  0  0  0  0  0
    9.7070    8.7980   79.5040 C   0  0  0  0  0  0  0  0  0  0  0  0
    8.9610    9.3220   80.5480 C   0  0  0  0  0  0  0  0  0  0  0  0
    7.7920    8.8390   81.0600 N   0  0  0  0  0  0  0  0  0  0  0  0
    7.2500    9.5290   82.0640 C   0  0  0  0  0  0  0  0  0  0  0  0
    7.7750   10.6560   82.5750 N   0  0  0  0  0  0  0  0  0  0  0  0
    8.9380   11.1610   82.0840 C   0  0  0  0  0  0  0  0  0  0  0  0
    9.4310   12.2970   82.6350 N   0  0  0  0  0  0  0  0  0  0  0  0
    9.5570   10.4690   81.0290 C   0  0  0  0  0  0  0  0  0  0  0  0
   10.6820   10.6600   80.2750 N   0  0  0  0  0  0  0  0  0  0  0  0
   10.7790    9.6610   79.3660 C   0  0  0  0  0  0  0  0  0  0  0  0
  1  2  1  0
  2  3  1  0
  2 11  2  0
  3  4  2  0
  3  9  1  0
  4  5  1  0
  5  6  2  0
  6  7  1  0
  7  8  1  0
  7  9  2  0
  9 10  1  0
 10 11  1  0
M  END
>  <PDBID_FRAGID>  (1) 
FRASE_6DYW_OS5_fragment_2

>  <triplet_in_target>  (1) 
ILEA114ASPA120LEUA170

$$$$
FRASE_3T55_4RG_fragment_1_0_ILEA73PHEA91PHEA98
     RDKit          3D

 11 11  0  0  0  0  0  0  0  0999 V2000
    3.5360    8.3420   70.1670 C   0  0  0  0  0  0  0  0  0  0  0  0
    4.9780    8.7260   69.8220 C   0  0  0  0  0  0  0  0  0  0  0  0
    5.1920    9.7310   68.8880 C   0  0  0  0  0  0  0  0  0  0  0  0
    6.4880   10.0940   68.5370 C   0  0  0  0  0  0  0  0  0  0  0  0
    7.5770    9.4500   69.1020 C   0  0  0  0  0  0  0  0  0  0  0  0
    7.3820    8.4410   70.0520 C   0  0  0  0  0  0  0  0  0  0  0  0
    6.0780    8.0830   70.4010 C   0  0  0  0  0  0  0  0  0  0  0  0
    2.5940    8.9470   69.5820 O   0  0  0  0  0  0  0  0  0  0  0  0
    3.3710    7.3620   70.9220 O   0  0  0  0  0  0  0  0  0  0  0  0
    6.6650   11.0960   67.5730 C   0  0  0  0  0  0  0  0  0  0  0  0
    7.9510   11.2660   66.9090 O   0  0  0  0  0  0  0  0  0  0  0  0
  1  2  1  0
  1  8  2  0
  1  9  1  0
  2  3  2  0
  2  7  1  0
  3  4  1  0
  4  5  2  0
  4 10  1  0
  5  6  1  0
  6  7  2  0
 10 11  1  0
M  END
>  <PDBID_FRAGID>  (1) 
FRASE_3T55_4RG_fragment_1

>  <triplet_in_target>  (1) 
ILEA73PHEA91PHEA98

$$$$
FRASE_5M7E_SD5_fragment_1_0_ARGA32LEUA38VALA45
     RDKit          3D

 11 11  0  0  0  0  0  0  0  0999 V2000
   -4.3280   -3.4000   49.1770 N   0  0  0  0  0  0  0  0  0  0  0  0
   -4.0770   -4.4220   49.9760 C   0  0  0  0  0  0  0  0  0  0  0  0
   -2.7730   -4.8400   50.1330 C   0  0  0  0  0  0  0  0  0  0  0  0
   -2.4460   -5.9270   50.9460 C   0  0  0  0  0  0  0  0  0  0  0  0
   -3.4860   -6.5820   51.6170 C   0  0  0  0  0  0  0  0  0  0  0  0
   -4.7920   -6.1260   51.4230 C   0  0  0  0  0  0  0  0  0  0  0  0
   -5.0760   -5.0470   50.6060 N   0  0  0  0  0  0  0  0  0  0  0  0
   -1.0920   -6.3080   51.0640 C   0  0  2  0  0  0  0  0  0  0  0  0
   -0.7390   -6.5100   52.2770 F   0  0  0  0  0  0  0  0  0  0  0  0
   -0.2880   -5.4110   50.5860 F   0  0  0  0  0  0  0  0  0  0  0  0
   -0.9400   -7.3100   50.4280 F   0  0  0  0  0  0  0  0  0  0  0  0
  1  2  1  0
  2  3  2  0
  2  7  1  0
  3  4  1  0
  4  5  2  0
  4  8  1  0
  5  6  1  0
  6  7  2  0
  8  9  1  1
  8 10  1  0
  8 11  1  0
M  END
>  <PDBID_FRAGID>  (1) 
FRASE_5M7E_SD5_fragment_1

>  <triplet_in_target>  (1) 
ARGA32LEUA38VALA45

$$$$
FRASE_7XJ0_EQK_fragment_3_0_PHEA69VALA76PHEA115
     RDKit          3D

  7  7  0  0  0  0  0  0  0  0999 V2000
   12.4360   -0.6150   79.8650 C   0  0  0  0  0  0  0  0  0  0  0  0
   11.7400   -1.7000   79.2390 C   0  0  0  0  0  0  0  0  0  0  0  0
   10.2610   -1.9930   79.2550 C   0  0  0  0  0  0  0  0  0  0  0  0
   14.0390   -2.0410   78.7270 C   0  0  0  0  0  0  0  0  0  0  0  0
   12.7750   -2.5880   78.5220 N   0  0  0  0  0  0  0  0  0  0  0  0
   15.2270   -2.5920   78.1530 N   0  0  0  0  0  0  0  0  0  0  0  0
   13.8910   -0.7690   79.5580 S   0  0  0  0  0  0  0  0  0  0  0  0
  1  2  2  0
  1  7  1  0
  2  3  1  0
  2  5  1  0
  4  5  2  0
  4  6  1  0
  4  7  1  0
M  END
>  <PDBID_FRAGID>  (1) 
FRASE_7XJ0_EQK_fragment_3

>  <triplet_in_target>  (1) 
PHEA69VALA76PHEA115

$$$$
FRASE_6H3K_FMW_fragment_1_0_GLUA126VALA132LYSA150
     RDKit          3D

 13 14  0  0  0  0  0  0  0  0999 V2000
   25.7790   -3.9430   88.0330 C   0  0  0  0  0  0  0  0  0  0  0  0
   25.8960   -3.0730   85.7340 C   0  0  0  0  0  0  0  0  0  0  0  0
   26.0480   -3.4090   84.3630 C   0  0  0  0  0  0  0  0  0  0  0  0
   25.6980   -1.7980   86.3090 C   0  0  0  0  0  0  0  0  0  0  0  0
   25.5850   -1.6500   87.6740 C   0  0  0  0  0  0  0  0  0  0  0  0
   25.7180   -2.6950   88.5150 N   0  0  0  0  0  0  0  0  0  0  0  0
   25.9090   -4.1920   86.6060 C   0  0  0  0  0  0  0  0  0  0  0  0
   26.0570   -5.4650   86.1460 N   0  0  0  0  0  0  0  0  0  0  0  0
   26.2050   -4.6310   83.9020 N   0  0  0  0  0  0  0  0  0  0  0  0
   26.2080   -5.6120   84.8210 C   0  0  0  0  0  0  0  0  0  0  0  0
   26.4310   -6.8860   84.3830 N   0  0  0  0  0  0  0  0  0  0  0  0
   25.3490   -0.3100   88.3040 C   0  0  0  0  0  0  0  0  0  0  0  0
   25.7690   -5.0390   88.9200 N   0  0  0  0  0  0  0  0  0  0  0  0
  1  6  2  0
  1  7  1  0
  1 13  1  0
  2  3  1  0
  2  4  1  0
  2  7  2  0
  3  9  2  0
  4  5  2  0
  5  6  1  0
  5 12  1  0
  7  8  1  0
  8 10  2  0
  9 10  1  0
 10 11  1  0
M  END
>  <PDBID_FRAGID>  (1) 
FRASE_6H3K_FMW_fragment_1

>  <triplet_in_target>  (1) 
GLUA126VALA132LYSA150

$$$$
FRASE_7ADG_8NE_fragment_1_0_ILEA114ASPA119ASPA127
     RDKit          3D

  7  7  0  0  0  0  0  0  0  0999 V2000
   12.2910   -3.0090   81.5190 N   0  0  0  0  0  0  0  0  0  0  0  0
   11.2040   -5.4090   81.5580 C   0  0  0  0  0  0  0  0  0  0  0  0
   11.1220   -3.8870   81.6470 C   0  0  0  0  0  0  0  0  0  0  0  0
   14.1900   -2.1560   80.7670 N   0  0  0  0  0  0  0  0  0  0  0  0
   12.6450   -1.9990   82.3770 C   0  0  0  0  0  0  0  0  0  0  0  0
   13.8030   -1.4910   81.9030 C   0  0  0  0  0  0  0  0  0  0  0  0
   13.2550   -3.0590   80.5750 C   0  0  0  0  0  0  0  0  0  0  0  0
  1  3  1  0
  1  5  1  0
  1  7  1  0
  2  3  1  0
  4  6  1  0
  4  7  1  0
  5  6  1  0
M  END
>  <PDBID_FRAGID>  (1) 
FRASE_7ADG_8NE_fragment_1

>  <triplet_in_target>  (1) 
ILEA114ASPA119ASPA127

$$$$
FRASE_7BNE_NCT_fragment_2_0_ALAA30SERA48PHEA91
     RDKit          3D

  6  6  0  0  0  0  0  0  0  0999 V2000
   -0.8920    6.9170   59.9010 N   0  0  0  0  0  0  0  0  0  0  0  0
   -1.1970    5.7130   60.3840 C   0  0  0  0  0  0  0  0  0  0  0  0
    0.1470    5.3340   61.1330 C   0  0  0  0  0  0  0  0  0  0  0  0
    1.2450    5.9860   60.2400 C   0  0  0  0  0  0  0  0  0  0  0  0
    0.5700    6.6260   59.2430 C   0  0  0  0  0  0  0  0  0  0  0  0
   -1.8240    7.3010   58.8550 C   0  0  0  0  0  0  0  0  0  0  0  0
  1  2  1  0
  1  5  1  0
  1  6  1  0
  2  3  1  0
  3  4  1  0
  4  5  1  0
M  END
>  <PDBID_FRAGID>  (1) 
FRASE_7BNE_NCT_fragment_2

>  <triplet_in_target>  (1) 
ALAA30SERA48PHEA91

$$$$
FRASE_5NAH_8RB_fragment_2_0_ARGA125VALA132LEUA152
     RDKit          3D

 16 17  0  0  0  0  0  0  0  0999 V2000
   27.0540    8.7600   80.6600 C   0  0  0  0  0  0  0  0  0  0  0  0
   24.8740    8.6020   81.0940 C   0  0  0  0  0  0  0  0  0  0  0  0
   23.4990    8.9170   81.6240 C   0  0  0  0  0  0  0  0  0  0  0  0
   23.2580    8.0380   82.8440 C   0  0  0  0  0  0  0  0  0  0  0  0
   21.9990    8.3370   83.6080 C   0  0  0  0  0  0  0  0  0  0  0  0
   26.2690   10.7750   81.6940 C   0  0  0  0  0  0  0  0  0  0  0  0
   27.8870   12.8690   82.1840 Cl  0  0  0  0  0  0  0  0  0  0  0  0
   27.5530   11.2780   81.5810 C   0  0  0  0  0  0  0  0  0  0  0  0
   26.0200    9.4800   81.2430 C   0  0  0  0  0  0  0  0  0  0  0  0
   25.1940    7.5190   80.4940 N   0  0  0  0  0  0  0  0  0  0  0  0
   26.5840    7.5740   80.1950 O   0  0  0  0  0  0  0  0  0  0  0  0
   28.3360    9.2440   80.5350 C   0  0  0  0  0  0  0  0  0  0  0  0
   28.5890   10.5310   81.0110 C   0  0  0  0  0  0  0  0  0  0  0  0
   29.8230   11.1290   81.0210 O   0  0  0  0  0  0  0  0  0  0  0  0
   30.8830   10.5480   80.2630 C   0  0  0  0  0  0  0  0  0  0  0  0
   31.6130    9.5580   81.1550 C   0  0  0  0  0  0  0  0  0  0  0  0
  1  9  2  0
  1 11  1  0
  1 12  1  0
  2  3  1  0
  2  9  1  0
  2 10  2  0
  3  4  1  0
  4  5  1  0
  6  8  2  0
  6  9  1  0
  7  8  1  0
  8 13  1  0
 10 11  1  0
 12 13  2  0
 13 14  1  0
 14 15  1  0
 15 16  1  0
M  END
>  <PDBID_FRAGID>  (1) 
FRASE_5NAH_8RB_fragment_2

>  <triplet_in_target>  (1) 
ARGA125VALA132LEUA152

$$$$
FRASE_6BVQ_4AA_fragment_1_0_PHEA112THRA122GLUA172
     RDKit          3D

 12 12  0  0  0  0  0  0  0  0999 V2000
   20.3360    5.9000   83.6590 O   0  0  0  0  0  0  0  0  0  0  0  0
   20.8830    5.7080   82.5490 C   0  0  0  0  0  0  0  0  0  0  0  0
   21.0490    4.5260   82.1350 O   0  0  0  0  0  0  0  0  0  0  0  0
   21.3420    6.9050   81.7110 C   0  0  0  0  0  0  0  0  0  0  0  0
   21.4540    6.7820   80.3330 C   0  0  0  0  0  0  0  0  0  0  0  0
   21.8570    7.8560   79.5590 C   0  0  0  0  0  0  0  0  0  0  0  0
   22.1550    9.0620   80.1690 C   0  0  0  0  0  0  0  0  0  0  0  0
   22.6710   10.4300   79.1440 Cl  0  0  0  0  0  0  0  0  0  0  0  0
   22.0490    9.1920   81.5520 C   0  0  0  0  0  0  0  0  0  0  0  0
   22.3720   10.4040   82.1770 O   0  0  0  0  0  0  0  0  0  0  0  0
   21.6400    8.1140   82.3230 C   0  0  0  0  0  0  0  0  0  0  0  0
   21.5300    8.2470   83.7630 N   0  0  0  0  0  0  0  0  0  0  0  0
  1  2  2  0
  2  3  1  0
  2  4  1  0
  4  5  2  0
  4 11  1  0
  5  6  1  0
  6  7  2  0
  7  8  1  0
  7  9  1  0
  9 10  1  0
  9 11  2  0
 11 12  1  0
M  END
>  <PDBID_FRAGID>  (1) 
FRASE_6BVQ_4AA_fragment_1

>  <triplet_in_target>  (1) 
PHEA112THRA122GLUA172

$$$$
FRASE_5J1Q_CXA_fragment_1_0_ILEA58ILEA73SERA85
     RDKit          3D

 16 16  0  0  0  0  0  0  0  0999 V2000
    9.3210   -5.7560   72.1810 C   0  0  0  0  0  0  0  0  0  0  0  0
    9.8900   -4.9150   73.1530 C   0  0  0  0  0  0  0  0  0  0  0  0
   11.0430   -4.1740   72.8690 C   0  0  0  0  0  0  0  0  0  0  0  0
   11.6300   -4.2570   71.6070 C   0  0  0  0  0  0  0  0  0  0  0  0
   11.0580   -5.0750   70.6330 C   0  0  0  0  0  0  0  0  0  0  0  0
    9.9100   -5.8210   70.9220 C   0  0  0  0  0  0  0  0  0  0  0  0
    8.0580   -6.5530   72.4590 C   0  0  0  0  0  0  0  0  0  0  0  0
    8.2990   -7.8280   73.2700 C   0  0  1  0  0  0  0  0  0  0  0  0
    8.8680   -7.4280   74.6040 C   0  0  0  0  0  0  0  0  0  0  0  0
   10.0880   -7.6180   74.8260 O   0  0  0  0  0  0  0  0  0  0  0  0
    8.1200   -6.8770   75.4490 O   0  0  0  0  0  0  0  0  0  0  0  0
    7.0500   -8.5650   73.3910 N   0  0  0  0  0  0  0  0  0  0  0  0
    6.9890   -9.9490   74.1990 S   0  0  2  0  0  0  0  0  0  0  0  0
    7.5300  -11.0320   73.2000 N   0  0  0  0  0  0  0  0  0  0  0  0
    5.6170  -10.2300   74.5260 O   0  0  0  0  0  0  0  0  0  0  0  0
    7.7960   -9.8490   75.3900 O   0  0  0  0  0  0  0  0  0  0  0  0
  1  2  2  0
  1  6  1  0
  1  7  1  0
  2  3  1  0
  3  4  2  0
  4  5  1  0
  5  6  2  0
  8  7  1  6
  8  9  1  0
  8 12  1  0
  9 10  2  0
  9 11  1  0
 12 13  1  0
 13 14  1  6
 13 15  2  0
 13 16  2  0
M  END
>  <PDBID_FRAGID>  (1) 
FRASE_5J1Q_CXA_fragment_1

>  <triplet_in_target>  (1) 
ILEA58ILEA73SERA85

$$$$
FRASE_3TDA_PN0_fragment_3_0_LEUA28PHEA34VALA45
     RDKit          3D

  7  7  0  0  0  0  0  0  0  0999 V2000
   -0.8740   -5.6710   52.7770 C   0  0  0  0  0  0  0  0  0  0  0  0
    1.1340   -4.6950   51.0990 C   0  0  0  0  0  0  0  0  0  0  0  0
    0.2210   -2.4540   51.7590 O   0  0  0  0  0  0  0  0  0  0  0  0
    0.2450   -3.7960   51.7880 C   0  0  0  0  0  0  0  0  0  0  0  0
   -0.7560   -4.2900   52.6220 C   0  0  0  0  0  0  0  0  0  0  0  0
   -0.0510   -6.5370   52.1410 N   0  0  0  0  0  0  0  0  0  0  0  0
    0.9300   -6.0720   51.3230 C   0  0  0  0  0  0  0  0  0  0  0  0
  1  5  2  0
  1  6  1  0
  2  4  2  0
  2  7  1  0
  3  4  1  0
  4  5  1  0
  6  7  2  0
M  END
>  <PDBID_FRAGID>  (1) 
FRASE_3TDA_PN0_fragment_3

>  <triplet_in_target>  (1) 
LEUA28PHEA34VALA45

$$$$
FRASE_5TZ1_VT1_fragment_3_0_TYRA110PHEA115PHEA173
     RDKit          3D

 10 10  0  0  0  0  0  0  0  0999 V2000
   10.8600   12.4850   79.0610 C   0  0  1  0  0  0  0  0  0  0  0  0
   12.0950   12.2360   79.4710 F   0  0  0  0  0  0  0  0  0  0  0  0
   10.5760   11.6770   78.0470 F   0  0  0  0  0  0  0  0  0  0  0  0
    9.8900   12.1820   80.2100 C   0  0  0  0  0  0  0  0  0  0  0  0
   10.1970   13.0980   81.3680 C   0  0  0  0  0  0  0  0  0  0  0  0
    9.3390   12.5650   82.4610 N   0  0  0  0  0  0  0  0  0  0  0  0
    9.6900   12.2550   83.5150 N   0  0  0  0  0  0  0  0  0  0  0  0
    8.7880   11.9200   84.2210 N   0  0  0  0  0  0  0  0  0  0  0  0
    7.7650   12.0130   83.7070 N   0  0  0  0  0  0  0  0  0  0  0  0
    8.0170   12.4620   82.4830 C   0  0  0  0  0  0  0  0  0  0  0  0
  1  2  1  1
  1  3  1  0
  1  4  1  0
  4  5  1  0
  5  6  1  0
  6  7  1  0
  6 10  1  0
  7  8  2  0
  8  9  1  0
  9 10  2  0
M  END
>  <PDBID_FRAGID>  (1) 
FRASE_5TZ1_VT1_fragment_3

>  <triplet_in_target>  (1) 
TYRA110PHEA115PHEA173

$$$$
FRASE_5QHR_GQS_fragment_1_0_TYRA110PHEA115LEUA170
     RDKit          3D

  7  7  0  0  0  0  0  0  0  0999 V2000
   11.3990   10.5940   80.8320 N   0  0  0  0  0  0  0  0  0  0  0  0
    8.5360   10.6990   78.9000 N   0  0  0  0  0  0  0  0  0  0  0  0
   12.5180    8.4610   81.2340 C   0  0  0  0  0  0  0  0  0  0  0  0
   11.4200    9.3160   80.7130 C   0  0  0  0  0  0  0  0  0  0  0  0
    9.4810   10.2790   79.7830 C   0  0  0  0  0  0  0  0  0  0  0  0
   10.1240   11.0790   80.5880 N   0  0  0  0  0  0  0  0  0  0  0  0
   10.0000    8.6600   79.9510 S   0  0  0  0  0  0  0  0  0  0  0  0
  1  4  2  0
  1  6  1  0
  2  5  1  0
  3  4  1  0
  4  7  1  0
  5  6  2  0
  5  7  1  0
M  END
>  <PDBID_FRAGID>  (1) 
FRASE_5QHR_GQS_fragment_1

>  <triplet_in_target>  (1) 
TYRA110PHEA115LEUA170

$$$$
FRASE_7CVR_STQ_fragment_1_0_PHEA55LEUA64ARGA72
     RDKit          3D

 11 11  0  0  0  0  0  0  0  0999 V2000
   15.7780  -11.0200   72.9170 O   0  0  0  0  0  0  0  0  0  0  0  0
   15.9030   -9.9440   72.2930 C   0  0  0  0  0  0  0  0  0  0  0  0
   16.0230   -8.8320   72.8840 O   0  0  0  0  0  0  0  0  0  0  0  0
   15.9460   -9.9970   70.7770 C   0  0  0  0  0  0  0  0  0  0  0  0
   14.5480   -9.8740   70.1550 C   0  0  0  0  0  0  0  0  0  0  0  0
   13.8000   -8.6330   70.5560 C   0  0  0  0  0  0  0  0  0  0  0  0
   14.1320   -7.4070   69.9880 C   0  0  0  0  0  0  0  0  0  0  0  0
   13.4250   -6.2680   70.3650 C   0  0  0  0  0  0  0  0  0  0  0  0
   12.3900   -6.3440   71.2860 C   0  0  0  0  0  0  0  0  0  0  0  0
   12.0610   -7.5650   71.8580 C   0  0  0  0  0  0  0  0  0  0  0  0
   12.7610   -8.7130   71.4870 C   0  0  0  0  0  0  0  0  0  0  0  0
  1  2  2  0
  2  3  1  0
  2  4  1  0
  4  5  1  0
  5  6  1  0
  6  7  2  0
  6 11  1  0
  7  8  1  0
  8  9  2  0
  9 10  1  0
 10 11  2  0
M  END
>  <PDBID_FRAGID>  (1) 
FRASE_7CVR_STQ_fragment_1

>  <triplet_in_target>  (1) 
PHEA55LEUA64ARGA72

$$$$
FRASE_5SEN_IG9_fragment_2_0_ILEA156ILEA162PHEA173
     RDKit          3D

  5  5  0  0  0  0  0  0  0  0999 V2000
   30.3180   17.3110   81.8670 C   0  0  0  0  0  0  0  0  0  0  0  0
   29.4130   16.0930   81.5690 C   0  0  0  0  0  0  0  0  0  0  0  0
   29.0870   17.9270   82.5910 C   0  0  0  0  0  0  0  0  0  0  0  0
   26.9850   16.9350   81.4570 C   0  0  0  0  0  0  0  0  0  0  0  0
   28.2570   16.9710   81.8330 N   0  0  0  0  0  0  0  0  0  0  0  0
  1  2  1  0
  1  3  1  0
  2  5  1  0
  3  5  1  0
  4  5  1  0
M  END
>  <PDBID_FRAGID>  (1) 
FRASE_5SEN_IG9_fragment_2

>  <triplet_in_target>  (1) 
ILEA156ILEA162PHEA173

$$$$
FRASE_4EJJ_NCT_fragment_2_0_PHEA117THRA122LEUA128
     RDKit          3D

  6  6  0  0  0  0  0  0  0  0999 V2000
   17.7850    8.9990   79.7160 N   0  0  0  0  0  0  0  0  0  0  0  0
   17.4230    9.7480   78.5520 C   0  0  0  0  0  0  0  0  0  0  0  0
   18.6970   10.5340   78.4560 C   0  0  0  0  0  0  0  0  0  0  0  0
   18.8590   10.9880   79.8970 C   0  0  0  0  0  0  0  0  0  0  0  0
   18.2440    9.9170   80.7570 C   0  0  0  0  0  0  0  0  0  0  0  0
   17.7550    7.5700   79.8660 C   0  0  0  0  0  0  0  0  0  0  0  0
  1  2  1  0
  1  5  1  0
  1  6  1  0
  2  3  1  0
  3  4  1  0
  4  5  1  0
M  END
>  <PDBID_FRAGID>  (1) 
FRASE_4EJJ_NCT_fragment_2

>  <triplet_in_target>  (1) 
PHEA117THRA122LEUA128

$$$$
FRASE_4X2K_3WO_fragment_1_0_VALA53SERA80ASPA90
     RDKit          3D

 12 13  0  0  0  0  0  0  0  0999 V2000
   -6.2860    1.6800   69.7820 C   0  0  0  0  0  0  0  0  0  0  0  0
   -6.8130    0.4950   70.1210 C   0  0  0  0  0  0  0  0  0  0  0  0
   -4.8330   -1.7450   66.5480 C   0  0  0  0  0  0  0  0  0  0  0  0
   -4.4390    0.5350   66.6690 C   0  0  0  0  0  0  0  0  0  0  0  0
   -6.6080   -0.6290   69.4000 N   0  0  0  0  0  0  0  0  0  0  0  0
   -5.4810    1.7990   68.6250 C   0  0  0  0  0  0  0  0  0  0  0  0
   -5.2380    0.5790   67.8310 C   0  0  0  0  0  0  0  0  0  0  0  0
   -5.8420   -0.6300   68.2770 C   0  0  0  0  0  0  0  0  0  0  0  0
   -5.6140   -1.7540   67.6170 N   0  0  0  0  0  0  0  0  0  0  0  0
   -4.2600   -0.6570   66.0670 N   0  0  0  0  0  0  0  0  0  0  0  0
   -4.9880    2.8780   68.3510 O   0  0  0  0  0  0  0  0  0  0  0  0
   -3.8580    1.7050   66.2220 N   0  0  0  0  0  0  0  0  0  0  0  0
  1  2  1  0
  1  6  1  0
  2  5  2  0
  3  9  1  0
  3 10  2  0
  4  7  2  0
  4 10  1  0
  4 12  1  0
  5  8  1  0
  6  7  1  0
  6 11  2  0
  7  8  1  0
  8  9  2  0
M  END
>  <PDBID_FRAGID>  (1) 
FRASE_4X2K_3WO_fragment_1

>  <triplet_in_target>  (1) 
VALA53SERA80ASPA90

$$$$
FRASE_6CJW_FYV_fragment_1_0_ILEA58ILEA73ASPA84
     RDKit          3D

  6  6  0  0  0  0  0  0  0  0999 V2000
    8.7310   -7.3800   72.5770 C   0  0  0  0  0  0  0  0  0  0  0  0
    9.9920   -7.0830   72.0760 C   0  0  0  0  0  0  0  0  0  0  0  0
    8.2490   -6.7090   73.6410 N   0  0  0  0  0  0  0  0  0  0  0  0
    8.9450   -5.7340   74.2640 C   0  0  0  0  0  0  0  0  0  0  0  0
   10.2060   -5.3790   73.8040 C   0  0  0  0  0  0  0  0  0  0  0  0
   10.7320   -6.0700   72.6980 C   0  0  0  0  0  0  0  0  0  0  0  0
  1  2  2  0
  1  3  1  0
  2  6  1  0
  3  4  2  0
  4  5  1  0
  5  6  2  0
M  END
>  <PDBID_FRAGID>  (1) 
FRASE_6CJW_FYV_fragment_1

>  <triplet_in_target>  (1) 
ILEA58ILEA73ASPA84

$$$$
FRASE_4Q1E_2Y8_fragment_2_0_LEUA28PHEA34VALA45
     RDKit          3D

  9  9  0  0  0  0  0  0  0  0999 V2000
   -1.4630   -2.8720   48.7310 C   0  0  0  0  0  0  0  0  0  0  0  0
   -1.9020   -2.0050   49.6760 N   0  0  0  0  0  0  0  0  0  0  0  0
   -0.1290   -3.5120   49.1510 S   0  0  0  0  0  0  0  0  0  0  0  0
    0.0190   -2.7640   50.5300 C   0  0  0  0  0  0  0  0  0  0  0  0
    1.1820   -2.9510   51.4810 C   0  0  0  0  0  0  0  0  0  0  0  0
   -1.0340   -1.9530   50.7140 C   0  0  0  0  0  0  0  0  0  0  0  0
   -1.1810   -1.0870   51.9970 C   0  0  1  0  0  0  0  0  0  0  0  0
   -1.2620    0.4180   51.6680 C   0  0  0  0  0  0  0  0  0  0  0  0
   -2.6170   -1.5930   52.9620 S   0  0  0  0  0  0  0  0  0  0  0  0
  1  2  2  0
  1  3  1  0
  2  6  1  0
  3  4  1  0
  4  5  1  0
  4  6  2  0
  6  7  1  0
  7  8  1  6
  7  9  1  0
M  END
>  <PDBID_FRAGID>  (1) 
FRASE_4Q1E_2Y8_fragment_2

>  <triplet_in_target>  (1) 
LEUA28PHEA34VALA45

$$$$
FRASE_6G9A_ESQ_fragment_1_0_LEUA94ILEA106ALAA111
     RDKit          3D

  8  8  0  0  0  0  0  0  0  0999 V2000
   10.6440    8.1510   70.3890 C   0  0  0  0  0  0  0  0  0  0  0  0
   11.5190    7.7920   69.3790 C   0  0  0  0  0  0  0  0  0  0  0  0
   12.2640    6.6860   69.4300 N   0  0  0  0  0  0  0  0  0  0  0  0
   12.0940    5.9320   70.5220 C   0  0  0  0  0  0  0  0  0  0  0  0
   10.5220    7.3060   71.4950 C   0  0  0  0  0  0  0  0  0  0  0  0
    9.7490    9.6060   70.1810 Cl  0  0  0  0  0  0  0  0  0  0  0  0
   12.8400    4.8120   70.5760 N   0  0  0  0  0  0  0  0  0  0  0  0
   11.2740    6.1900   71.5600 N   0  0  0  0  0  0  0  0  0  0  0  0
  1  2  2  0
  1  5  1  0
  1  6  1  0
  2  3  1  0
  3  4  2  0
  4  7  1  0
  4  8  1  0
  5  8  2  0
M  END
>  <PDBID_FRAGID>  (1) 
FRASE_6G9A_ESQ_fragment_1

>  <triplet_in_target>  (1) 
LEUA94ILEA106ALAA111

$$$$
FRASE_5G6H_M85_fragment_1_0_HISA31ALAA51PHEA91
     RDKit          3D

 13 14  0  0  0  0  0  0  0  0999 V2000
   -5.5140    3.6600   64.2250 N   0  0  0  0  0  0  0  0  0  0  0  0
   -5.2640    3.1290   65.4420 C   0  0  0  0  0  0  0  0  0  0  0  0
   -6.2290    2.3410   66.0190 N   0  0  0  0  0  0  0  0  0  0  0  0
   -4.0470    3.3780   66.0910 C   0  0  0  0  0  0  0  0  0  0  0  0
   -3.0860    4.1890   65.4830 C   0  0  0  0  0  0  0  0  0  0  0  0
   -3.3740    4.7200   64.2270 C   0  0  0  0  0  0  0  0  0  0  0  0
   -2.4550    5.5340   63.5850 C   0  0  0  0  0  0  0  0  0  0  0  0
   -2.7570    6.0480   62.3240 C   0  0  0  0  0  0  0  0  0  0  0  0
   -3.9750    5.7580   61.7110 C   0  0  0  0  0  0  0  0  0  0  0  0
   -4.8920    4.9420   62.3560 C   0  0  0  0  0  0  0  0  0  0  0  0
   -4.5940    4.4310   63.6040 C   0  0  0  0  0  0  0  0  0  0  0  0
   -4.2770    6.3180   60.3450 C   0  0  0  0  0  0  0  0  0  0  0  0
   -3.0030    6.5270   59.7170 O   0  0  0  0  0  0  0  0  0  0  0  0
  1  2  2  0
  1 11  1  0
  2  3  1  0
  2  4  1  0
  4  5  2  0
  5  6  1  0
  6  7  1  0
  6 11  2  0
  7  8  2  0
  8  9  1  0
  9 10  2  0
  9 12  1  0
 10 11  1  0
 12 13  1  0
M  END
>  <PDBID_FRAGID>  (1) 
FRASE_5G6H_M85_fragment_1

>  <triplet_in_target>  (1) 
HISA31ALAA51PHEA91

$$$$
FRASE_5SB0_1IZ_fragment_1_0_LEUA28PHEA34VALA45
     RDKit          3D

  7  7  0  0  0  0  0  0  0  0999 V2000
   -0.2740   -3.5680   51.2470 C   0  0  0  0  0  0  0  0  0  0  0  0
    0.5240   -4.6930   51.3920 C   0  0  0  0  0  0  0  0  0  0  0  0
   -0.4970   -1.3160   50.6200 O   0  0  0  0  0  0  0  0  0  0  0  0
    0.3230   -2.4080   50.7060 C   0  0  0  0  0  0  0  0  0  0  0  0
    1.8860   -4.6370   50.9920 C   0  0  0  0  0  0  0  0  0  0  0  0
    2.4590   -3.5300   50.4600 N   0  0  0  0  0  0  0  0  0  0  0  0
    1.6840   -2.4310   50.3200 C   0  0  0  0  0  0  0  0  0  0  0  0
  1  2  2  0
  1  4  1  0
  2  5  1  0
  3  4  1  0
  4  7  2  0
  5  6  2  0
  6  7  1  0
M  END
>  <PDBID_FRAGID>  (1) 
FRASE_5SB0_1IZ_fragment_1

>  <triplet_in_target>  (1) 
LEUA28PHEA34VALA45

$$$$
FRASE_6A99_9UL_fragment_3_0_SERA96THRA103TYRA110
     RDKit          3D

  6  6  0  0  0  0  0  0  0  0999 V2000
   15.7060    9.2720   65.6040 C   0  0  0  0  0  0  0  0  0  0  0  0
   16.6060    9.5300   66.7670 N   0  0  0  0  0  0  0  0  0  0  0  0
   17.7050   10.6870   66.5890 C   0  0  0  0  0  0  0  0  0  0  0  0
   18.5000   10.6400   67.6630 C   0  0  0  0  0  0  0  0  0  0  0  0
   17.7250    9.9360   68.7520 C   0  0  0  0  0  0  0  0  0  0  0  0
   16.6940    8.9770   67.9820 C   0  0  0  0  0  0  0  0  0  0  0  0
  1  2  1  0
  2  3  1  0
  2  6  1  0
  3  4  1  0
  4  5  1  0
  5  6  1  0
M  END
>  <PDBID_FRAGID>  (1) 
FRASE_6A99_9UL_fragment_3

>  <triplet_in_target>  (1) 
SERA96THRA103TYRA110

$$$$
FRASE_7B8D_SFY_fragment_2_0_LEUA28PHEA34VALA45
     RDKit          3D

  7  7  0  0  0  0  0  0  0  0999 V2000
    0.4160   -2.7230   52.0720 N   0  0  0  0  0  0  0  0  0  0  0  0
   -0.2220   -1.6800   51.3020 C   0  0  0  0  0  0  0  0  0  0  0  0
   -1.5250   -1.3330   51.6240 C   0  0  0  0  0  0  0  0  0  0  0  0
   -2.1230   -0.3240   50.8970 C   0  0  0  0  0  0  0  0  0  0  0  0
   -1.4070    0.2950   49.8850 C   0  0  0  0  0  0  0  0  0  0  0  0
   -0.1110   -0.1140   49.6320 C   0  0  0  0  0  0  0  0  0  0  0  0
    0.4470   -1.0760   50.3380 N   0  0  0  0  0  0  0  0  0  0  0  0
  1  2  1  0
  2  3  2  0
  2  7  1  0
  3  4  1  0
  4  5  2  0
  5  6  1  0
  6  7  2  0
M  END
>  <PDBID_FRAGID>  (1) 
FRASE_7B8D_SFY_fragment_2

>  <triplet_in_target>  (1) 
LEUA28PHEA34VALA45

$$$$
FRASE_5IRQ_6D7_fragment_2_0_ILEA106LEUA170ILEA177
     RDKit          3D

  9 10  0  0  0  0  0  0  0  0999 V2000
   17.7730   21.8910   76.8750 C   0  0  1  0  0  0  0  0  0  0  0  0
   18.2570   20.6110   77.3360 C   0  0  0  0  0  0  0  0  0  0  0  0
   17.7240   19.6000   76.3610 C   0  0  0  0  0  0  0  0  0  0  0  0
   15.4660   19.9270   74.9140 C   0  0  0  0  0  0  0  0  0  0  0  0
   15.4480   22.1090   75.3580 C   0  0  0  0  0  0  0  0  0  0  0  0
   16.5880   21.5350   75.9730 C   0  0  0  0  0  0  0  0  0  0  0  0
   17.5930   22.9640   77.8320 O   0  0  0  0  0  0  0  0  0  0  0  0
   16.5760   20.1990   75.7080 N   0  0  0  0  0  0  0  0  0  0  0  0
   14.7790   21.1220   74.7080 N   0  0  0  0  0  0  0  0  0  0  0  0
  1  2  1  0
  1  6  1  0
  1  7  1  1
  2  3  1  0
  3  8  1  0
  4  8  1  0
  4  9  2  0
  5  6  2  0
  5  9  1  0
  6  8  1  0
M  END
>  <PDBID_FRAGID>  (1) 
FRASE_5IRQ_6D7_fragment_2

>  <triplet_in_target>  (1) 
ILEA106LEUA170ILEA177

$$$$
FRASE_3KCX_CQL_fragment_1_0_PHEA55LYSA65ILEA73
     RDKit          3D

 13 14  0  0  0  0  0  0  0  0999 V2000
   14.4520  -11.4370   71.0510 O   0  0  0  0  0  0  0  0  0  0  0  0
   11.8840   -6.1090   72.0910 Cl  0  0  0  0  0  0  0  0  0  0  0  0
   11.4960  -12.0030   71.7340 I   0  0  0  0  0  0  0  0  0  0  0  0
   16.0010   -6.8310   70.9800 C   0  0  0  0  0  0  0  0  0  0  0  0
   16.5670   -8.0790   70.7320 C   0  0  0  0  0  0  0  0  0  0  0  0
   14.6590   -6.7120   71.3400 C   0  0  0  0  0  0  0  0  0  0  0  0
   11.8610   -8.9410   71.8990 C   0  0  0  0  0  0  0  0  0  0  0  0
   15.8380   -9.1880   70.8510 N   0  0  0  0  0  0  0  0  0  0  0  0
   12.5890   -7.7540   71.7950 C   0  0  0  0  0  0  0  0  0  0  0  0
   13.8290  -10.2430   71.2940 C   0  0  0  0  0  0  0  0  0  0  0  0
   12.4940  -10.1670   71.6400 C   0  0  0  0  0  0  0  0  0  0  0  0
   13.9190   -7.8570   71.4430 C   0  0  0  0  0  0  0  0  0  0  0  0
   14.5390   -9.0830   71.1950 C   0  0  0  0  0  0  0  0  0  0  0  0
  1 10  1  0
  2  9  1  0
  3 11  1  0
  4  5  2  0
  4  6  1  0
  5  8  1  0
  6 12  2  0
  7  9  2  0
  7 11  1  0
  8 13  2  0
  9 12  1  0
 10 11  2  0
 10 13  1  0
 12 13  1  0
M  END
>  <PDBID_FRAGID>  (1) 
FRASE_3KCX_CQL_fragment_1

>  <triplet_in_target>  (1) 
PHEA55LYSA65ILEA73

$$$$
FRASE_3Q93_IMD_fragment_1_0_ASPA161ASNA169VALA176
     RDKit          3D

  5  5  0  0  0  0  0  0  0  0999 V2000
   22.1300   19.5480   84.4480 N   0  0  0  0  0  0  0  0  0  0  0  0
   22.1490   20.2940   83.3220 C   0  0  0  0  0  0  0  0  0  0  0  0
   21.8650   21.5760   83.6410 N   0  0  0  0  0  0  0  0  0  0  0  0
   21.6640   21.6390   84.9760 C   0  0  0  0  0  0  0  0  0  0  0  0
   21.8320   20.3560   85.4840 C   0  0  0  0  0  0  0  0  0  0  0  0
  1  2  1  0
  1  5  1  0
  2  3  2  0
  3  4  1  0
  4  5  2  0
M  END
>  <PDBID_FRAGID>  (1) 
FRASE_3Q93_IMD_fragment_1

>  <triplet_in_target>  (1) 
ASPA161ASNA169VALA176

$$$$
FRASE_1BH6_1BH_fragment_2_0_HISA109SERA171ILEA177
     RDKit          3D

 13 13  0  0  0  0  0  0  0  0999 V2000
   20.5070   23.3690   78.4870 C   0  0  0  0  0  0  0  0  0  0  0  0
   18.4380   20.5020   72.7350 O   0  0  0  0  0  0  0  0  0  0  0  0
   19.0550   19.7060   73.5040 C   0  0  0  0  0  0  0  0  0  0  0  0
   20.3830   23.4510   77.1620 N   0  0  0  0  0  0  0  0  0  0  0  0
   19.1870   23.0880   76.4480 C   0  0  1  0  0  0  0  0  0  0  0  0
   18.9910   23.9090   75.1880 C   0  0  0  0  0  0  0  0  0  0  0  0
   19.4790   21.6730   75.8150 C   0  0  0  0  0  0  0  0  0  0  0  0
   20.6330   21.2460   75.6160 O   0  0  0  0  0  0  0  0  0  0  0  0
   18.4140   20.8750   75.6610 N   0  0  0  0  0  0  0  0  0  0  0  0
   16.9870   21.1130   75.8990 C   0  0  0  0  0  0  0  0  0  0  0  0
   18.6870   19.5370   75.0280 C   0  0  1  0  0  0  0  0  0  0  0  0
   17.3240   18.8430   75.1300 C   0  0  0  0  0  0  0  0  0  0  0  0
   16.2840   19.8430   75.5210 C   0  0  0  0  0  0  0  0  0  0  0  0
  1  4  1  0
  2  3  2  0
 11  3  1  6
  4  5  1  0
  5  6  1  6
  5  7  1  0
  7  8  2  0
  7  9  1  0
  9 10  1  0
  9 11  1  0
 10 13  1  0
 11 12  1  0
 12 13  1  0
M  END
>  <PDBID_FRAGID>  (1) 
FRASE_1BH6_1BH_fragment_2

>  <triplet_in_target>  (1) 
HISA109SERA171ILEA177

$$$$
FRASE_7FZN_WHB_fragment_1_0_LEUA38PROA54PHEA88
     RDKit          3D

  7  7  0  0  0  0  0  0  0  0999 V2000
    5.8000   -1.6960   57.8560 C   0  0  0  0  0  0  0  0  0  0  0  0
    6.5200   -1.3640   59.1530 C   0  0  0  0  0  0  0  0  0  0  0  0
    4.6140   -1.5690   60.8810 C   0  0  0  0  0  0  0  0  0  0  0  0
    6.3940   -2.9820   61.1910 C   0  0  0  0  0  0  0  0  0  0  0  0
    5.8980   -1.9770   60.3550 C   0  0  0  0  0  0  0  0  0  0  0  0
    4.2570   -2.3250   62.1270 C   0  0  0  0  0  0  0  0  0  0  0  0
    5.3250   -3.3490   62.4030 S   0  0  0  0  0  0  0  0  0  0  0  0
  1  2  1  0
  2  5  1  0
  3  5  1  0
  3  6  2  0
  4  5  2  0
  4  7  1  0
  6  7  1  0
M  END
>  <PDBID_FRAGID>  (1) 
FRASE_7FZN_WHB_fragment_1

>  <triplet_in_target>  (1) 
LEUA38PROA54PHEA88

$$$$
FRASE_6S11_KQE_fragment_2_0_ARGA43GLUA46PHEA88
     RDKit          3D

  6  6  0  0  0  0  0  0  0  0999 V2000
   -6.5010    4.8190   53.7570 C   0  0  0  0  0  0  0  0  0  0  0  0
   -4.9040    4.0680   55.3690 C   0  0  0  0  0  0  0  0  0  0  0  0
   -5.8540    4.9950   54.9750 C   0  0  0  0  0  0  0  0  0  0  0  0
   -6.1490    3.7180   52.9790 C   0  0  0  0  0  0  0  0  0  0  0  0
   -5.1960    2.8370   53.4710 C   0  0  0  0  0  0  0  0  0  0  0  0
   -4.5750    2.9920   54.6480 N   0  0  0  0  0  0  0  0  0  0  0  0
  1  3  2  0
  1  4  1  0
  2  3  1  0
  2  6  2  0
  4  5  2  0
  5  6  1  0
M  END
>  <PDBID_FRAGID>  (1) 
FRASE_6S11_KQE_fragment_2

>  <triplet_in_target>  (1) 
ARGA43GLUA46PHEA88

$$$$
FRASE_1BGJ_PHB_fragment_1_0_ARGA32LEUA38LEUA49
     RDKit          3D

 10 10  0  0  0  0  0  0  0  0999 V2000
   -3.7230   -1.8290   52.5680 C   0  0  0  0  0  0  0  0  0  0  0  0
   -3.6450   -1.5810   53.8020 O   0  0  0  0  0  0  0  0  0  0  0  0
   -4.5740   -1.2540   51.8450 O   0  0  0  0  0  0  0  0  0  0  0  0
   -2.8710   -2.7660   51.8980 C   0  0  0  0  0  0  0  0  0  0  0  0
   -1.8660   -3.5000   52.5560 C   0  0  0  0  0  0  0  0  0  0  0  0
   -1.1770   -4.5150   51.9100 C   0  0  0  0  0  0  0  0  0  0  0  0
   -1.4690   -4.8110   50.5980 C   0  0  0  0  0  0  0  0  0  0  0  0
   -2.4450   -4.1020   49.9230 C   0  0  0  0  0  0  0  0  0  0  0  0
   -3.1370   -3.0980   50.5580 C   0  0  0  0  0  0  0  0  0  0  0  0
   -0.8530   -5.7770   49.9820 O   0  0  0  0  0  0  0  0  0  0  0  0
  1  2  2  0
  1  3  1  0
  1  4  1  0
  4  5  2  0
  4  9  1  0
  5  6  1  0
  6  7  2  0
  7  8  1  0
  7 10  1  0
  8  9  2  0
M  END
>  <PDBID_FRAGID>  (1) 
FRASE_1BGJ_PHB_fragment_1

>  <triplet_in_target>  (1) 
ARGA32LEUA38LEUA49

$$$$
FRASE_4JWT_ADE_fragment_1_0_ILEA114ASPA120LEUA170
     RDKit          3D

 10 11  0  0  0  0  0  0  0  0999 V2000
   10.1160    8.8820   79.2570 N   0  0  0  0  0  0  0  0  0  0  0  0
   11.1650    9.7330   79.1660 C   0  0  0  0  0  0  0  0  0  0  0  0
   11.0060   10.7970   79.9880 N   0  0  0  0  0  0  0  0  0  0  0  0
    9.8370   10.6260   80.6280 C   0  0  0  0  0  0  0  0  0  0  0  0
    9.0590   11.3630   81.6250 C   0  0  0  0  0  0  0  0  0  0  0  0
    9.5160   12.5240   82.0990 N   0  0  0  0  0  0  0  0  0  0  0  0
    7.8830   10.8640   82.0400 N   0  0  0  0  0  0  0  0  0  0  0  0
    7.4090    9.7150   81.5560 C   0  0  0  0  0  0  0  0  0  0  0  0
    8.0670    8.9760   80.6400 N   0  0  0  0  0  0  0  0  0  0  0  0
    9.2540    9.3670   80.1450 C   0  0  0  0  0  0  0  0  0  0  0  0
  1  2  1  0
  1 10  1  0
  2  3  2  0
  3  4  1  0
  4  5  1  0
  4 10  2  0
  5  6  1  0
  5  7  2  0
  7  8  1  0
  8  9  2  0
  9 10  1  0
M  END
>  <PDBID_FRAGID>  (1) 
FRASE_4JWT_ADE_fragment_1

>  <triplet_in_target>  (1) 
ILEA114ASPA120LEUA170

$$$$
FRASE_5DGZ_L20_fragment_3_0_LYSA107ILEA177ASPA182
     RDKit          3D

 14 15  0  0  0  0  0  0  0  0999 V2000
   22.0600   21.3180   67.3700 O   0  0  0  0  0  0  0  0  0  0  0  0
   21.3990   20.3100   68.0850 C   0  0  0  0  0  0  0  0  0  0  0  0
   20.8280   20.8880   69.3620 C   0  0  1  0  0  0  0  0  0  0  0  0
   21.9380   21.4030   70.1290 N   0  0  0  0  0  0  0  0  0  0  0  0
   19.8320   22.0130   69.0660 C   0  0  0  0  0  0  0  0  0  0  0  0
   18.6140   21.5060   68.3540 C   0  0  0  0  0  0  0  0  0  0  0  0
   17.4850   21.0900   68.8910 C   0  0  0  0  0  0  0  0  0  0  0  0
   16.6340   20.6880   67.9370 N   0  0  0  0  0  0  0  0  0  0  0  0
   17.1990   20.8360   66.7260 C   0  0  0  0  0  0  0  0  0  0  0  0
   16.7560   20.5810   65.4560 C   0  0  0  0  0  0  0  0  0  0  0  0
   17.5830   20.8410   64.4170 C   0  0  0  0  0  0  0  0  0  0  0  0
   18.8290   21.3660   64.6250 C   0  0  0  0  0  0  0  0  0  0  0  0
   19.2790   21.6180   65.8680 C   0  0  0  0  0  0  0  0  0  0  0  0
   18.4640   21.3580   66.9340 C   0  0  0  0  0  0  0  0  0  0  0  0
  1  2  1  0
  2  3  1  0
  3  4  1  1
  3  5  1  0
  5  6  1  0
  6  7  2  0
  6 14  1  0
  7  8  1  0
  8  9  1  0
  9 10  1  0
  9 14  2  0
 10 11  2  0
 11 12  1  0
 12 13  2  0
 13 14  1  0
M  END
>  <PDBID_FRAGID>  (1) 
FRASE_5DGZ_L20_fragment_3

>  <triplet_in_target>  (1) 
LYSA107ILEA177ASPA182

$$$$
FRASE_5CAH_4ZA_fragment_1_0_LEUA128LYSA150ASNA155
     RDKit          3D

 11 12  0  0  0  0  0  0  0  0999 V2000
   24.0240    0.5660   89.8320 C   0  0  0  0  0  0  0  0  0  0  0  0
   22.2790    1.5950   93.4760 O   0  0  0  0  0  0  0  0  0  0  0  0
   22.8210    2.4590   92.7520 C   0  0  0  0  0  0  0  0  0  0  0  0
   22.8720    3.6850   92.9490 O   0  0  0  0  0  0  0  0  0  0  0  0
   23.4850    1.9660   91.4660 C   0  0  0  0  0  0  0  0  0  0  0  0
   24.3300    2.6460   90.5880 C   0  0  0  0  0  0  0  0  0  0  0  0
   24.6770    1.7720   89.5480 C   0  0  0  0  0  0  0  0  0  0  0  0
   25.4400    1.6980   88.3520 C   0  0  0  0  0  0  0  0  0  0  0  0
   25.3400    0.4850   87.7830 C   0  0  0  0  0  0  0  0  0  0  0  0
   24.3300   -0.6150   88.6940 S   0  0  0  0  0  0  0  0  0  0  0  0
   23.3120    0.6890   90.9770 N   0  0  0  0  0  0  0  0  0  0  0  0
  1  7  2  0
  1 10  1  0
  1 11  1  0
  2  3  2  0
  3  4  1  0
  3  5  1  0
  5  6  2  0
  5 11  1  0
  6  7  1  0
  7  8  1  0
  8  9  2  0
  9 10  1  0
M  END
>  <PDBID_FRAGID>  (1) 
FRASE_5CAH_4ZA_fragment_1

>  <triplet_in_target>  (1) 
LEUA128LYSA150ASNA155

$$$$
FRASE_5WBE_63X_fragment_3_0_ILEA106LEUA170ILEA177
     RDKit          3D

  6  6  0  0  0  0  0  0  0  0999 V2000
   18.3260   20.8420   76.0250 C   0  0  0  0  0  0  0  0  0  0  0  0
   19.0280   22.0620   76.1950 C   0  0  0  0  0  0  0  0  0  0  0  0
   16.8180   20.6140   76.0240 C   0  0  0  0  0  0  0  0  0  0  0  0
   19.1850   19.8940   75.8030 O   0  0  0  0  0  0  0  0  0  0  0  0
   20.4050   20.3610   75.8340 N   0  0  0  0  0  0  0  0  0  0  0  0
   20.4040   21.6640   76.0820 C   0  0  0  0  0  0  0  0  0  0  0  0
  1  2  2  0
  1  3  1  0
  1  4  1  0
  2  6  1  0
  4  5  1  0
  5  6  2  0
M  END
>  <PDBID_FRAGID>  (1) 
FRASE_5WBE_63X_fragment_3

>  <triplet_in_target>  (1) 
ILEA106LEUA170ILEA177

$$$$
FRASE_8S9A_ZSB_fragment_2_0_GLUA158ASPA165ILEA168
     RDKit          3D

 13 14  0  0  0  0  0  0  0  0999 V2000
   23.6870    8.8880   90.8120 C   0  0  0  0  0  0  0  0  0  0  0  0
   23.5330    9.5620   89.7630 O   0  0  0  0  0  0  0  0  0  0  0  0
   25.6670   10.0470   91.6140 C   0  0  0  0  0  0  0  0  0  0  0  0
   25.9840    9.0110   93.5170 N   0  0  0  0  0  0  0  0  0  0  0  0
   25.7510    7.5430   95.3200 C   0  0  0  0  0  0  0  0  0  0  0  0
   24.6560    6.9640   94.7170 C   0  0  0  0  0  0  0  0  0  0  0  0
   24.9110    8.4540   92.8860 C   0  0  0  0  0  0  0  0  0  0  0  0
   24.7270    9.0790   91.6920 C   0  0  0  0  0  0  0  0  0  0  0  0
   24.2680    7.4370   93.4930 N   0  0  0  0  0  0  0  0  0  0  0  0
   26.4600   10.0040   92.7230 N   0  0  0  0  0  0  0  0  0  0  0  0
   26.4270    8.6070   94.7140 C   0  0  0  0  0  0  0  0  0  0  0  0
   27.4950    9.1880   95.2760 N   0  0  0  0  0  0  0  0  0  0  0  0
   24.0530    5.9470   95.4160 N   0  0  0  0  0  0  0  0  0  0  0  0
  1  2  2  0
  1  8  1  0
  3  8  1  0
  3 10  2  0
  4  7  1  0
  4 10  1  0
  4 11  1  0
  5  6  1  0
  5 11  2  0
  6  9  2  0
  6 13  1  0
  7  8  2  0
  7  9  1  0
 11 12  1  0
M  END
>  <PDBID_FRAGID>  (1) 
FRASE_8S9A_ZSB_fragment_2

>  <triplet_in_target>  (1) 
GLUA158ASPA165ILEA168

$$$$
FRASE_7COO_ZP6_fragment_1_0_PHEA55LEUA64ARGA72
     RDKit          3D

 11 11  0  0  0  0  0  0  0  0999 V2000
   16.2920   -8.3850   72.7240 O   0  0  0  0  0  0  0  0  0  0  0  0
   16.1490   -9.5190   72.1970 C   0  0  0  0  0  0  0  0  0  0  0  0
   16.0720  -10.5560   72.9000 O   0  0  0  0  0  0  0  0  0  0  0  0
   16.0720   -9.6980   70.6970 C   0  0  0  0  0  0  0  0  0  0  0  0
   14.6480   -9.6430   70.1940 C   0  0  0  0  0  0  0  0  0  0  0  0
   13.9390   -8.3640   70.5970 C   0  0  0  0  0  0  0  0  0  0  0  0
   12.9520   -8.3990   71.5970 C   0  0  0  0  0  0  0  0  0  0  0  0
   12.2790   -7.2300   71.9490 C   0  0  0  0  0  0  0  0  0  0  0  0
   12.5930   -6.0390   71.3120 C   0  0  0  0  0  0  0  0  0  0  0  0
   13.5640   -6.0070   70.3160 C   0  0  0  0  0  0  0  0  0  0  0  0
   14.2490   -7.1610   69.9660 C   0  0  0  0  0  0  0  0  0  0  0  0
  1  2  2  0
  2  3  1  0
  2  4  1  0
  4  5  1  0
  5  6  1  0
  6  7  2  0
  6 11  1  0
  7  8  1  0
  8  9  2  0
  9 10  1  0
 10 11  2  0
M  END
>  <PDBID_FRAGID>  (1) 
FRASE_7COO_ZP6_fragment_1

>  <triplet_in_target>  (1) 
PHEA55LEUA64ARGA72

$$$$
FRASE_8SBC_ZTV_fragment_2_0_ILEA58ILEA73ASPA84
     RDKit          3D

  6  6  0  0  0  0  0  0  0  0999 V2000
    8.7440   -4.7280   72.9040 C   0  0  0  0  0  0  0  0  0  0  0  0
    9.8390   -6.1160   71.4440 C   0  0  0  0  0  0  0  0  0  0  0  0
    9.3300   -5.4540   70.3450 C   0  0  0  0  0  0  0  0  0  0  0  0
    8.4900   -4.3900   70.5610 C   0  0  0  0  0  0  0  0  0  0  0  0
    8.1830   -4.0120   71.8550 C   0  0  0  0  0  0  0  0  0  0  0  0
    9.5600   -5.7790   72.7150 N   0  0  0  0  0  0  0  0  0  0  0  0
  1  5  2  0
  1  6  1  0
  2  3  1  0
  2  6  2  0
  3  4  2  0
  4  5  1  0
M  END
>  <PDBID_FRAGID>  (1) 
FRASE_8SBC_ZTV_fragment_2

>  <triplet_in_target>  (1) 
ILEA58ILEA73ASPA84

$$$$
FRASE_3LYG_IMD_fragment_1_0_VALA76TYRA110PHEA115
     RDKit          3D

  5  5  0  0  0  0  0  0  0  0999 V2000
   14.3470    2.6570   71.5600 N   0  0  0  0  0  0  0  0  0  0  0  0
   15.3320    3.4310   71.0710 C   0  0  0  0  0  0  0  0  0  0  0  0
   16.3440    2.6730   70.6270 N   0  0  0  0  0  0  0  0  0  0  0  0
   16.0000    1.3750   70.8540 C   0  0  0  0  0  0  0  0  0  0  0  0
   14.7760    1.3730   71.4600 C   0  0  0  0  0  0  0  0  0  0  0  0
  1  2  1  0
  1  5  1  0
  2  3  2  0
  3  4  1  0
  4  5  2  0
M  END
>  <PDBID_FRAGID>  (1) 
FRASE_3LYG_IMD_fragment_1

>  <triplet_in_target>  (1) 
VALA76TYRA110PHEA115

$$$$
FRASE_5AOK_GOH_fragment_2_0_LEUA37GLUA41ALAA51
     RDKit          3D

  5  5  0  0  0  0  0  0  0  0999 V2000
   -3.4740   -4.3890   56.4310 C   0  0  0  0  0  0  0  0  0  0  0  0
   -2.0850   -4.3840   56.5190 N   0  0  0  0  0  0  0  0  0  0  0  0
   -1.6900   -3.8390   55.4150 N   0  0  0  0  0  0  0  0  0  0  0  0
   -2.7230   -3.4960   54.6590 N   0  0  0  0  0  0  0  0  0  0  0  0
   -3.8470   -3.7970   55.2250 N   0  0  0  0  0  0  0  0  0  0  0  0
  1  2  2  0
  1  5  1  0
  2  3  1  0
  3  4  2  0
  4  5  1  0
M  END
>  <PDBID_FRAGID>  (1) 
FRASE_5AOK_GOH_fragment_2

>  <triplet_in_target>  (1) 
LEUA37GLUA41ALAA51

$$$$
FRASE_2W0U_C7C_fragment_2_0_LYSA70VALA76LEUA94
     RDKit          3D

  9  9  0  0  0  0  0  0  0  0999 V2000
   15.4070    6.9760   68.0190 S   0  0  0  0  0  0  0  0  0  0  0  0
   16.7310    5.9110   68.4190 C   0  0  0  0  0  0  0  0  0  0  0  0
   17.1650    5.5760   69.7940 C   0  0  0  0  0  0  0  0  0  0  0  0
   16.4620    6.1590   70.9710 C   0  0  0  0  0  0  0  0  0  0  0  0
   15.7330    7.1610   70.8060 O   0  0  0  0  0  0  0  0  0  0  0  0
   16.6170    5.6300   72.0930 O   0  0  0  0  0  0  0  0  0  0  0  0
   17.7220    5.0960   67.2760 S   0  0  0  0  0  0  0  0  0  0  0  0
   18.6790    4.3360   68.4580 N   0  0  0  0  0  0  0  0  0  0  0  0
   18.2300    4.7140   69.7580 N   0  0  0  0  0  0  0  0  0  0  0  0
  1  2  1  0
  2  3  2  0
  2  7  1  0
  3  4  1  0
  3  9  1  0
  4  5  2  0
  4  6  1  0
  7  8  1  0
  8  9  2  0
M  END
>  <PDBID_FRAGID>  (1) 
FRASE_2W0U_C7C_fragment_2

>  <triplet_in_target>  (1) 
LYSA70VALA76LEUA94

$$$$
FRASE_5C9R_4YZ_fragment_1_0_VALA132SERA145LYSA150
     RDKit          3D

 13 13  0  0  0  0  0  0  0  0999 V2000
   27.6360   -6.0000   81.5920 C   0  0  0  0  0  0  0  0  0  0  0  0
   26.1870   -5.7710   83.4820 C   0  0  0  0  0  0  0  0  0  0  0  0
   24.5640   -5.7410   88.3230 O   0  0  0  0  0  0  0  0  0  0  0  0
   23.9820   -6.8530   88.3060 C   0  0  0  0  0  0  0  0  0  0  0  0
   23.5670   -7.4980   89.2940 O   0  0  0  0  0  0  0  0  0  0  0  0
   23.7600   -7.5610   86.8630 C   0  0  0  0  0  0  0  0  0  0  0  0
   24.0320   -6.6290   85.7350 C   0  0  0  0  0  0  0  0  0  0  0  0
   24.1310   -7.5590   84.0850 S   0  0  0  0  0  0  0  0  0  0  0  0
   25.5010   -6.9430   83.1210 C   0  0  0  0  0  0  0  0  0  0  0  0
   25.9090   -7.6170   81.9880 C   0  0  0  0  0  0  0  0  0  0  0  0
   26.9620   -7.1490   81.2290 C   0  0  0  0  0  0  0  0  0  0  0  0
   28.9680   -5.4610   80.5580 Cl  0  0  0  0  0  0  0  0  0  0  0  0
   27.2760   -5.2790   82.7190 C   0  0  0  0  0  0  0  0  0  0  0  0
  1 11  2  0
  1 12  1  0
  1 13  1  0
  2  9  1  0
  2 13  2  0
  3  4  2  0
  4  5  1  0
  4  6  1  0
  6  7  1  0
  7  8  1  0
  8  9  1  0
  9 10  2  0
 10 11  1  0
M  END
>  <PDBID_FRAGID>  (1) 
FRASE_5C9R_4YZ_fragment_1

>  <triplet_in_target>  (1) 
VALA132SERA145LYSA150

$$$$
FRASE_4DDM_0HO_fragment_1_0_PHEA69ASPA116LEUA131
     RDKit          3D

 12 13  0  0  0  0  0  0  0  0999 V2000
   10.2090   -1.8990   77.5020 O   0  0  0  0  0  0  0  0  0  0  0  0
   10.7350   -3.0140   77.7370 C   0  0  0  0  0  0  0  0  0  0  0  0
   10.0380   -4.0290   77.7190 O   0  0  0  0  0  0  0  0  0  0  0  0
   12.0720   -3.0860   78.1300 C   0  0  0  0  0  0  0  0  0  0  0  0
   12.6330   -4.3040   78.4490 C   0  0  0  0  0  0  0  0  0  0  0  0
   13.8750   -4.4170   78.8830 C   0  0  0  0  0  0  0  0  0  0  0  0
   14.4920   -5.5580   79.1890 N   0  0  0  0  0  0  0  0  0  0  0  0
   16.0210   -5.1670   79.6970 S   0  0  0  0  0  0  0  0  0  0  0  0
   15.8810   -3.5620   79.4870 N   0  0  0  0  0  0  0  0  0  0  0  0
   14.6390   -3.3060   79.0260 C   0  0  0  0  0  0  0  0  0  0  0  0
   14.1250   -2.1120   78.7620 C   0  0  0  0  0  0  0  0  0  0  0  0
   12.8270   -1.9360   78.3000 C   0  0  0  0  0  0  0  0  0  0  0  0
  1  2  2  0
  2  3  1  0
  2  4  1  0
  4  5  2  0
  4 12  1  0
  5  6  1  0
  6  7  2  0
  6 10  1  0
  7  8  1  0
  8  9  1  0
  9 10  2  0
 10 11  1  0
 11 12  2  0
M  END
>  <PDBID_FRAGID>  (1) 
FRASE_4DDM_0HO_fragment_1

>  <triplet_in_target>  (1) 
PHEA69ASPA116LEUA131

$$$$
FRASE_3F28_S7B_fragment_2_0_ASPA161LEUA170HISA175
     RDKit          3D

  6  6  0  0  0  0  0  0  0  0999 V2000
   17.7540   21.5280   86.2310 O   0  0  0  0  0  0  0  0  0  0  0  0
   18.3280   20.4190   85.7270 C   0  0  0  0  0  0  0  0  0  0  0  0
   18.9700   20.4270   84.6880 O   0  0  0  0  0  0  0  0  0  0  0  0
   18.2190   19.1450   86.5040 C   0  0  2  0  0  0  0  0  0  0  0  0
   16.8440   18.6700   86.9870 C   0  0  0  0  0  0  0  0  0  0  0  0
   17.8370   19.3650   87.9660 C   0  0  0  0  0  0  0  0  0  0  0  0
  1  2  1  0
  2  3  2  0
  4  2  1  6
  4  5  1  0
  4  6  1  0
  5  6  1  0
M  END
>  <PDBID_FRAGID>  (1) 
FRASE_3F28_S7B_fragment_2

>  <triplet_in_target>  (1) 
ASPA161LEUA170HISA175

$$$$
FRASE_5TZ1_VT1_fragment_2_0_VALA76TYRA110PHEA115
     RDKit          3D

 11 11  0  0  0  0  0  0  0  0999 V2000
    4.7920    4.7070   81.2010 C   0  0  0  0  0  0  0  0  0  0  0  0
    4.6080    6.0430   80.8610 C   0  0  0  0  0  0  0  0  0  0  0  0
    5.7000    6.9210   80.8110 N   0  0  0  0  0  0  0  0  0  0  0  0
    6.0890    4.2600   81.4260 C   0  0  0  0  0  0  0  0  0  0  0  0
    7.1510    5.1580   81.3830 C   0  0  0  0  0  0  0  0  0  0  0  0
    6.9350    6.5110   81.1370 C   0  0  0  0  0  0  0  0  0  0  0  0
    8.0220    7.3640   80.9390 C   0  0  2  0  0  0  0  0  0  0  0  0
    7.8720    7.9820   79.7770 F   0  0  0  0  0  0  0  0  0  0  0  0
    9.1420    6.6510   80.9010 F   0  0  0  0  0  0  0  0  0  0  0  0
    8.1560    8.4200   82.0430 C   0  0  0  0  0  0  0  0  0  0  0  0
    6.8890    9.2340   82.1020 C   0  0  0  0  0  0  0  0  0  0  0  0
  1  2  2  0
  1  4  1  0
  2  3  1  0
  3  6  2  0
  4  5  2  0
  5  6  1  0
  6  7  1  0
  7  8  1  6
  7  9  1  0
  7 10  1  0
 10 11  1  0
M  END
>  <PDBID_FRAGID>  (1) 
FRASE_5TZ1_VT1_fragment_2

>  <triplet_in_target>  (1) 
VALA76TYRA110PHEA115

$$$$
FRASE_1Z9Y_BE7_fragment_2_0_PHEA34GLNA42VALA45
     RDKit          3D

  7  7  0  0  0  0  0  0  0  0999 V2000
    0.3350   -4.9730   50.5030 N   0  0  0  0  0  0  0  0  0  0  0  0
   -0.6500   -5.4550   51.4810 C   0  0  0  0  0  0  0  0  0  0  0  0
   -1.9090   -5.8410   50.7540 C   0  0  0  0  0  0  0  0  0  0  0  0
   -2.1120   -7.0000   50.1300 C   0  0  0  0  0  0  0  0  0  0  0  0
   -3.4770   -6.8360   49.6190 C   0  0  0  0  0  0  0  0  0  0  0  0
   -3.8240   -5.6240   50.0590 C   0  0  0  0  0  0  0  0  0  0  0  0
   -2.8840   -4.9250   50.7090 O   0  0  0  0  0  0  0  0  0  0  0  0
  1  2  1  0
  2  3  1  0
  3  4  2  0
  3  7  1  0
  4  5  1  0
  5  6  2  0
  6  7  1  0
M  END
>  <PDBID_FRAGID>  (1) 
FRASE_1Z9Y_BE7_fragment_2

>  <triplet_in_target>  (1) 
PHEA34GLNA42VALA45

$$$$
FRASE_2W0U_C7C_fragment_2_0_ARGA75LEUA86LEUA94
     RDKit          3D

  9  9  0  0  0  0  0  0  0  0999 V2000
    4.7730    8.0060   71.0210 S   0  0  0  0  0  0  0  0  0  0  0  0
    4.7940    7.6120   72.7210 C   0  0  0  0  0  0  0  0  0  0  0  0
    3.7330    6.8620   73.4330 C   0  0  0  0  0  0  0  0  0  0  0  0
    2.5290    6.3800   72.7000 C   0  0  0  0  0  0  0  0  0  0  0  0
    2.2600    6.8760   71.5840 O   0  0  0  0  0  0  0  0  0  0  0  0
    1.8190    5.4920   73.2180 O   0  0  0  0  0  0  0  0  0  0  0  0
    6.0490    8.0340   73.8170 S   0  0  0  0  0  0  0  0  0  0  0  0
    5.2980    7.3040   75.1560 N   0  0  0  0  0  0  0  0  0  0  0  0
    4.0570    6.7230   74.7570 N   0  0  0  0  0  0  0  0  0  0  0  0
  1  2  1  0
  2  3  2  0
  2  7  1  0
  3  4  1  0
  3  9  1  0
  4  5  2  0
  4  6  1  0
  7  8  1  0
  8  9  2  0
M  END
>  <PDBID_FRAGID>  (1) 
FRASE_2W0U_C7C_fragment_2

>  <triplet_in_target>  (1) 
ARGA75LEUA86LEUA94

$$$$
FRASE_5DQ1_5HL_fragment_1_0_ILEA58PHEA77ASPA84
     RDKit          3D

 15 16  0  0  0  0  0  0  0  0999 V2000
    7.8330   -6.2150   74.0030 C   0  0  0  0  0  0  0  0  0  0  0  0
    8.6750   -6.4070   75.0810 C   0  0  0  0  0  0  0  0  0  0  0  0
    9.7020   -5.4950   75.3460 C   0  0  0  0  0  0  0  0  0  0  0  0
   10.8530   -3.4590   74.7730 N   0  0  0  0  0  0  0  0  0  0  0  0
   10.5780   -5.6180   76.4750 C   0  0  0  0  0  0  0  0  0  0  0  0
   11.4950   -4.6680   76.6980 C   0  0  0  0  0  0  0  0  0  0  0  0
   12.4100   -4.6420   77.9250 C   0  0  0  0  0  0  0  0  0  0  0  0
   11.6890   -3.5190   75.8370 C   0  0  0  0  0  0  0  0  0  0  0  0
    9.8580   -4.3840   74.4930 C   0  0  0  0  0  0  0  0  0  0  0  0
   12.5250   -2.6340   76.0290 O   0  0  0  0  0  0  0  0  0  0  0  0
   13.4730   -5.6360   77.8380 N   0  0  0  0  0  0  0  0  0  0  0  0
    9.0020   -4.1860   73.4020 C   0  0  0  0  0  0  0  0  0  0  0  0
    9.1410   -2.9680   72.5140 C   0  0  0  0  0  0  0  0  0  0  0  0
    8.0690   -2.8100   71.4540 C   0  0  0  0  0  0  0  0  0  0  0  0
    7.9950   -5.1180   73.1730 C   0  0  0  0  0  0  0  0  0  0  0  0
  1  2  2  0
  1 15  1  0
  2  3  1  0
  3  5  1  0
  3  9  2  0
  4  8  1  0
  4  9  1  0
  5  6  2  0
  6  7  1  0
  6  8  1  0
  7 11  1  0
  8 10  2  0
  9 12  1  0
 12 13  1  0
 12 15  2  0
 13 14  1  0
M  END
>  <PDBID_FRAGID>  (1) 
FRASE_5DQ1_5HL_fragment_1

>  <triplet_in_target>  (1) 
ILEA58PHEA77ASPA84

$$$$
FRASE_8AYY_W11_fragment_1_0_PHEA21ILEA27LEUA95
     RDKit          3D

 10 10  0  0  0  0  0  0  0  0999 V2000
   15.2160    9.0890   54.6420 O   0  0  0  0  0  0  0  0  0  0  0  0
   16.0770    9.9590   55.3560 N   0  0  0  0  0  0  0  0  0  0  0  0
   15.2780   10.6250   56.1850 C   0  0  0  0  0  0  0  0  0  0  0  0
   15.8360   11.6480   57.1230 C   0  0  0  0  0  0  0  0  0  0  0  0
   13.9410   10.2220   56.0370 C   0  0  0  0  0  0  0  0  0  0  0  0
   13.9550    9.2810   55.0840 C   0  0  0  0  0  0  0  0  0  0  0  0
   12.9110    8.4260   54.4440 C   0  0  0  0  0  0  0  0  0  0  0  0
   11.9740    7.7890   55.4580 C   0  0  0  0  0  0  0  0  0  0  0  0
   10.7710    7.1560   54.8090 C   0  0  0  0  0  0  0  0  0  0  0  0
   11.1890    5.9480   54.1600 O   0  0  0  0  0  0  0  0  0  0  0  0
  1  2  1  0
  1  6  1  0
  2  3  2  0
  3  4  1  0
  3  5  1  0
  5  6  2  0
  6  7  1  0
  7  8  1  0
  8  9  1  0
  9 10  1  0
M  END
>  <PDBID_FRAGID>  (1) 
FRASE_8AYY_W11_fragment_1

>  <triplet_in_target>  (1) 
PHEA21ILEA27LEUA95

$$$$
FRASE_5SGK_IXL_fragment_4_0_PHEA112ILEA168ILEA177
     RDKit          3D

  5  5  0  0  0  0  0  0  0  0999 V2000
   22.3700    8.9130   79.6170 C   0  0  0  0  0  0  0  0  0  0  0  0
   21.1320    6.7410   79.1380 C   0  0  0  0  0  0  0  0  0  0  0  0
   21.6810    7.7830   80.0420 N   0  0  0  0  0  0  0  0  0  0  0  0
   21.2960    5.7240   80.3250 C   0  0  0  0  0  0  0  0  0  0  0  0
   21.9880    6.8590   81.1480 C   0  0  0  0  0  0  0  0  0  0  0  0
  1  3  1  0
  2  3  1  0
  2  4  1  0
  3  5  1  0
  4  5  1  0
M  END
>  <PDBID_FRAGID>  (1) 
FRASE_5SGK_IXL_fragment_4

>  <triplet_in_target>  (1) 
PHEA112ILEA168ILEA177

$$$$
FRASE_5SFN_ILS_fragment_2_0_ILEA106PHEA112ILEA177
     RDKit          3D

  5  5  0  0  0  0  0  0  0  0999 V2000
   19.5920   10.5630   71.7360 C   0  0  0  0  0  0  0  0  0  0  0  0
   17.9130   10.4420   69.6040 C   0  0  0  0  0  0  0  0  0  0  0  0
   17.3440    9.0510   69.5960 C   0  0  0  0  0  0  0  0  0  0  0  0
   17.4140    9.0890   71.0820 C   0  0  0  0  0  0  0  0  0  0  0  0
   18.4580   10.1540   70.9520 N   0  0  0  0  0  0  0  0  0  0  0  0
  1  5  1  0
  2  3  1  0
  2  5  1  0
  3  4  1  0
  4  5  1  0
M  END
>  <PDBID_FRAGID>  (1) 
FRASE_5SFN_ILS_fragment_2

>  <triplet_in_target>  (1) 
ILEA106PHEA112ILEA177

$$$$
FRASE_1Z9Y_BE7_fragment_2_0_PHEA34GLNA42LEUA49
     RDKit          3D

  7  7  0  0  0  0  0  0  0  0999 V2000
   -1.6950   -0.2210   51.4440 N   0  0  0  0  0  0  0  0  0  0  0  0
   -2.4160   -1.2450   52.2120 C   0  0  0  0  0  0  0  0  0  0  0  0
   -3.8860   -1.1300   51.9160 C   0  0  0  0  0  0  0  0  0  0  0  0
   -4.4990   -1.6420   50.8500 C   0  0  0  0  0  0  0  0  0  0  0  0
   -5.8910   -1.2400   51.0770 C   0  0  0  0  0  0  0  0  0  0  0  0
   -5.8360   -0.5890   52.2420 C   0  0  0  0  0  0  0  0  0  0  0  0
   -4.6220   -0.4240   52.7850 O   0  0  0  0  0  0  0  0  0  0  0  0
  1  2  1  0
  2  3  1  0
  3  4  2  0
  3  7  1  0
  4  5  1  0
  5  6  2  0
  6  7  1  0
M  END
>  <PDBID_FRAGID>  (1) 
FRASE_1Z9Y_BE7_fragment_2

>  <triplet_in_target>  (1) 
PHEA34GLNA42LEUA49

$$$$
FRASE_5M8D_UGI_fragment_2_0_ARGA32LEUA38VALA45
     RDKit          3D

 11 11  0  0  0  0  0  0  0  0999 V2000
   -0.4000   -4.9870   50.8470 F   0  0  0  0  0  0  0  0  0  0  0  0
   -1.1520   -5.9380   51.2870 C   0  0  1  0  0  0  0  0  0  0  0  0
   -0.8430   -6.9610   50.6480 F   0  0  0  0  0  0  0  0  0  0  0  0
   -0.8720   -6.1050   52.4880 F   0  0  0  0  0  0  0  0  0  0  0  0
   -2.5230   -5.6800   51.0710 C   0  0  0  0  0  0  0  0  0  0  0  0
   -2.9150   -4.6010   50.2690 C   0  0  0  0  0  0  0  0  0  0  0  0
   -4.2520   -4.3170   50.0210 C   0  0  0  0  0  0  0  0  0  0  0  0
   -4.5680   -3.2880   49.2480 N   0  0  0  0  0  0  0  0  0  0  0  0
   -5.2250   -5.0700   50.5450 N   0  0  0  0  0  0  0  0  0  0  0  0
   -4.8790   -6.1470   51.3510 C   0  0  0  0  0  0  0  0  0  0  0  0
   -3.5440   -6.4650   51.6230 C   0  0  0  0  0  0  0  0  0  0  0  0
  2  1  1  6
  2  3  1  0
  2  4  1  0
  2  5  1  0
  5  6  2  0
  5 11  1  0
  6  7  1  0
  7  8  1  0
  7  9  2  0
  9 10  1  0
 10 11  2  0
M  END
>  <PDBID_FRAGID>  (1) 
FRASE_5M8D_UGI_fragment_2

>  <triplet_in_target>  (1) 
ARGA32LEUA38VALA45

$$$$
FRASE_5HIP_61O_fragment_2_0_ASPA161ASNA169HISA175
     RDKit          3D

  9  9  0  0  0  0  0  0  0  0999 V2000
   25.0610   13.0750   77.9120 C   0  0  0  0  0  0  0  0  0  0  0  0
   25.9630   12.6720   78.8940 C   0  0  0  0  0  0  0  0  0  0  0  0
   25.5380   12.2430   80.1420 C   0  0  0  0  0  0  0  0  0  0  0  0
   24.1460   12.2510   80.3800 C   0  0  0  0  0  0  0  0  0  0  0  0
   23.2560   12.6730   79.4010 C   0  0  0  0  0  0  0  0  0  0  0  0
   23.6930   13.0780   78.1520 C   0  0  0  0  0  0  0  0  0  0  0  0
   23.5850   11.7350   81.6890 C   0  0  0  0  0  0  0  0  0  0  0  0
   22.7200   12.3460   82.3920 O   0  0  0  0  0  0  0  0  0  0  0  0
   24.0330   10.5800   82.0520 O   0  0  0  0  0  0  0  0  0  0  0  0
  1  2  2  0
  1  6  1  0
  2  3  1  0
  3  4  2  0
  4  5  1  0
  4  7  1  0
  5  6  2  0
  7  8  2  0
  7  9  1  0
M  END
>  <PDBID_FRAGID>  (1) 
FRASE_5HIP_61O_fragment_2

>  <triplet_in_target>  (1) 
ASPA161ASNA169HISA175

$$$$
FRASE_5FI4_5XV_fragment_1_0_LEUA59ILEA73ASPA84
     RDKit          3D

  8  8  0  0  0  0  0  0  0  0999 V2000
    7.8110   -1.9040   74.7460 C   0  0  0  0  0  0  0  0  0  0  0  0
    9.0890   -3.6140   75.7350 C   0  0  0  0  0  0  0  0  0  0  0  0
    9.2010   -4.2820   74.5130 C   0  0  0  0  0  0  0  0  0  0  0  0
    7.9460   -2.5710   73.5240 C   0  0  0  0  0  0  0  0  0  0  0  0
    8.3860   -2.4670   75.8220 N   0  0  0  0  0  0  0  0  0  0  0  0
    8.6140   -3.7350   73.4320 N   0  0  0  0  0  0  0  0  0  0  0  0
    9.9480   -5.4030   74.4030 N   0  0  0  0  0  0  0  0  0  0  0  0
    9.7050   -4.1820   76.8210 O   0  0  0  0  0  0  0  0  0  0  0  0
  1  4  2  0
  1  5  1  0
  2  3  1  0
  2  5  2  0
  2  8  1  0
  3  6  2  0
  3  7  1  0
  4  6  1  0
M  END
>  <PDBID_FRAGID>  (1) 
FRASE_5FI4_5XV_fragment_1

>  <triplet_in_target>  (1) 
LEUA59ILEA73ASPA84

$$$$
FRASE_3Q2J_CKI_fragment_1_0_ASNA124ILEA156ARGA164
     RDKit          3D

 18 19  0  0  0  0  0  0  0  0999 V2000
   28.1450    9.7280   91.9550 C   0  0  0  0  0  0  0  0  0  0  0  0
   28.2840   10.3950   90.7860 N   0  0  0  0  0  0  0  0  0  0  0  0
   27.2280   10.5160   89.9270 C   0  0  0  0  0  0  0  0  0  0  0  0
   25.9980    9.9690   90.2380 C   0  0  0  0  0  0  0  0  0  0  0  0
   24.5110    8.6630   91.8990 C   0  0  0  0  0  0  0  0  0  0  0  0
   23.1480    8.7460   90.9380 Cl  0  0  0  0  0  0  0  0  0  0  0  0
   24.3880    7.9740   93.1410 C   0  0  0  0  0  0  0  0  0  0  0  0
   25.4790    7.8630   93.9720 C   0  0  0  0  0  0  0  0  0  0  0  0
   26.7410    8.4450   93.5990 C   0  0  0  0  0  0  0  0  0  0  0  0
   26.8870    9.1510   92.3330 C   0  0  0  0  0  0  0  0  0  0  0  0
   25.7990    9.2550   91.4940 C   0  0  0  0  0  0  0  0  0  0  0  0
   28.0650    8.2450   94.7320 S   0  0  2  0  0  0  0  0  0  0  0  0
   28.4970    9.5600   95.2560 O   0  0  0  0  0  0  0  0  0  0  0  0
   29.2380    7.5950   94.0160 O   0  0  0  0  0  0  0  0  0  0  0  0
   27.5640    7.2580   95.9440 N   0  0  0  0  0  0  0  0  0  0  0  0
   27.0060    8.0390   97.0660 C   0  0  0  0  0  0  0  0  0  0  0  0
   26.2050    9.3150   96.7460 C   0  0  0  0  0  0  0  0  0  0  0  0
   25.8380   10.2220   97.8430 N   0  0  0  0  0  0  0  0  0  0  0  0
  1  2  2  0
  1 10  1  0
  2  3  1  0
  3  4  2  0
  4 11  1  0
  5  6  1  0
  5  7  1  0
  5 11  2  0
  7  8  2  0
  8  9  1  0
  9 10  2  0
  9 12  1  0
 10 11  1  0
 12 13  2  0
 12 14  2  0
 12 15  1  1
 15 16  1  0
 16 17  1  0
 17 18  1  0
M  END
>  <PDBID_FRAGID>  (1) 
FRASE_3Q2J_CKI_fragment_1

>  <triplet_in_target>  (1) 
ASNA124ILEA156ARGA164

$$$$
FRASE_6P2E_BEZ_fragment_1_0_PHEA21PHEA98ILEA106
     RDKit          3D

  9  9  0  0  0  0  0  0  0  0999 V2000
   19.8740   14.2360   63.6100 C   0  0  0  0  0  0  0  0  0  0  0  0
   19.4400   13.2010   64.1510 O   0  0  0  0  0  0  0  0  0  0  0  0
   21.0430   14.6620   63.7260 O   0  0  0  0  0  0  0  0  0  0  0  0
   18.9190   15.0150   62.7560 C   0  0  0  0  0  0  0  0  0  0  0  0
   17.6060   14.5860   62.6110 C   0  0  0  0  0  0  0  0  0  0  0  0
   16.7390   15.2940   61.8060 C   0  0  0  0  0  0  0  0  0  0  0  0
   17.1640   16.4290   61.1550 C   0  0  0  0  0  0  0  0  0  0  0  0
   18.4550   16.8700   61.3010 C   0  0  0  0  0  0  0  0  0  0  0  0
   19.3370   16.1650   62.0940 C   0  0  0  0  0  0  0  0  0  0  0  0
  1  2  2  0
  1  3  1  0
  1  4  1  0
  4  5  2  0
  4  9  1  0
  5  6  1  0
  6  7  2  0
  7  8  1  0
  8  9  2  0
M  END
>  <PDBID_FRAGID>  (1) 
FRASE_6P2E_BEZ_fragment_1

>  <triplet_in_target>  (1) 
PHEA21PHEA98ILEA106

$$$$
FRASE_5FHR_DNC_fragment_1_0_ASPA154SERA160ARGA164
     RDKit          3D

 14 14  0  0  0  0  0  0  0  0999 V2000
   24.4610    8.0030   92.1830 C   0  0  0  0  0  0  0  0  0  0  0  0
   24.9240    9.0120   91.3750 O   0  0  0  0  0  0  0  0  0  0  0  0
   24.9070    7.9730   93.4920 C   0  0  0  0  0  0  0  0  0  0  0  0
   25.7750    8.9570   93.8980 O   0  0  0  0  0  0  0  0  0  0  0  0
   24.4430    7.0040   94.3630 C   0  0  0  0  0  0  0  0  0  0  0  0
   24.8940    6.9550   95.7190 N   0  0  0  0  0  0  0  0  0  0  0  0
   24.3540    6.1130   96.5470 O   0  0  0  0  0  0  0  0  0  0  0  0
   25.8320    7.7290   96.1340 O   0  0  0  0  0  0  0  0  0  0  0  0
   23.5350    6.0410   93.9270 C   0  0  0  0  0  0  0  0  0  0  0  0
   23.0930    6.0730   92.6100 C   0  0  0  0  0  0  0  0  0  0  0  0
   22.1230    5.1220   92.1800 N   0  0  0  0  0  0  0  0  0  0  0  0
   21.6040    5.2520   91.0100 O   0  0  0  0  0  0  0  0  0  0  0  0
   21.6740    4.1930   92.9740 O   0  0  0  0  0  0  0  0  0  0  0  0
   23.5430    7.0580   91.7340 C   0  0  0  0  0  0  0  0  0  0  0  0
  1  2  1  0
  1  3  2  0
  1 14  1  0
  3  4  1  0
  3  5  1  0
  5  6  1  0
  5  9  2  0
  6  7  2  0
  6  8  1  0
  9 10  1  0
 10 11  1  0
 10 14  2  0
 11 12  2  0
 11 13  1  0
M  CHG  4   6   1   8  -1  11   1  13  -1
M  END
>  <PDBID_FRAGID>  (1) 
FRASE_5FHR_DNC_fragment_1

>  <triplet_in_target>  (1) 
ASPA154SERA160ARGA164

$$$$
FRASE_7FVW_IQH_fragment_2_0_PHEA69CYSA74ARGA113
     RDKit          3D

  9  9  0  0  0  0  0  0  0  0999 V2000
   12.3930    4.8730   69.1110 C   0  0  0  0  0  0  0  0  0  0  0  0
   12.2740    6.2010   68.6990 C   0  0  0  0  0  0  0  0  0  0  0  0
   11.5040    4.7000   65.3950 C   0  0  0  0  0  0  0  0  0  0  0  0
   11.8010    4.9350   66.8390 C   0  0  0  0  0  0  0  0  0  0  0  0
   11.8930    6.2280   67.2870 N   0  0  0  0  0  0  0  0  0  0  0  0
   12.0990    3.7930   67.9150 S   0  0  0  0  0  0  0  0  0  0  0  0
   12.3920    7.4650   69.4230 C   0  0  0  0  0  0  0  0  0  0  0  0
   12.8790    7.4450   70.5500 O   0  0  0  0  0  0  0  0  0  0  0  0
   11.8820    8.5110   68.9250 O   0  0  0  0  0  0  0  0  0  0  0  0
  1  2  2  0
  1  6  1  0
  2  5  1  0
  2  7  1  0
  3  4  1  0
  4  5  2  0
  4  6  1  0
  7  8  2  0
  7  9  1  0
M  END
>  <PDBID_FRAGID>  (1) 
FRASE_7FVW_IQH_fragment_2

>  <triplet_in_target>  (1) 
PHEA69CYSA74ARGA113

$$$$
FRASE_6S03_KPW_fragment_2_0_LEUA59ILEA73LEUA86
     RDKit          3D

  7  7  0  0  0  0  0  0  0  0999 V2000
    6.8090   -5.9680   74.9500 N   0  0  0  0  0  0  0  0  0  0  0  0
    7.6560   -4.9640   74.5480 C   0  0  0  0  0  0  0  0  0  0  0  0
    8.7100   -3.6670   72.8860 C   0  0  0  0  0  0  0  0  0  0  0  0
    9.4210   -2.9550   73.8560 C   0  0  0  0  0  0  0  0  0  0  0  0
    9.2920   -3.2090   75.2260 C   0  0  0  0  0  0  0  0  0  0  0  0
    8.3860   -4.2410   75.5480 C   0  0  0  0  0  0  0  0  0  0  0  0
    7.8320   -4.6780   73.2520 N   0  0  0  0  0  0  0  0  0  0  0  0
  1  2  1  0
  2  6  2  0
  2  7  1  0
  3  4  1  0
  3  7  2  0
  4  5  2  0
  5  6  1  0
M  END
>  <PDBID_FRAGID>  (1) 
FRASE_6S03_KPW_fragment_2

>  <triplet_in_target>  (1) 
LEUA59ILEA73LEUA86

$$$$
FRASE_5SFX_IQJ_fragment_1_0_ILEA106PHEA112ILEA177
     RDKit          3D

  5  5  0  0  0  0  0  0  0  0999 V2000
   19.3050   10.6550   71.4410 C   0  0  0  0  0  0  0  0  0  0  0  0
   17.8170   10.1910   69.3820 C   0  0  0  0  0  0  0  0  0  0  0  0
   17.7070    8.6020   70.9510 C   0  0  0  0  0  0  0  0  0  0  0  0
   18.3400    9.9280   70.7630 N   0  0  0  0  0  0  0  0  0  0  0  0
   17.2250    8.7570   69.4370 C   0  0  0  0  0  0  0  0  0  0  0  0
  1  4  1  0
  2  4  1  0
  2  5  1  0
  3  4  1  0
  3  5  1  0
M  END
>  <PDBID_FRAGID>  (1) 
FRASE_5SFX_IQJ_fragment_1

>  <triplet_in_target>  (1) 
ILEA106PHEA112ILEA177

$$$$
FRASE_2FDV_D2G_fragment_2_0_PHEA69VALA76PHEA115
     RDKit          3D

  8  8  0  0  0  0  0  0  0  0999 V2000
   12.1530   -2.9210   77.0200 C   0  0  0  0  0  0  0  0  0  0  0  0
   12.5320   -1.8550   77.7650 C   0  0  0  0  0  0  0  0  0  0  0  0
   11.3250   -1.3200   78.3780 C   0  0  0  0  0  0  0  0  0  0  0  0
   10.3040   -2.1260   77.9510 C   0  0  0  0  0  0  0  0  0  0  0  0
   10.7770   -3.1290   77.1110 O   0  0  0  0  0  0  0  0  0  0  0  0
    8.7950   -2.1240   78.2160 C   0  0  0  0  0  0  0  0  0  0  0  0
    8.3550   -3.0040   79.2880 N   0  0  0  0  0  0  0  0  0  0  0  0
    9.2330   -3.4850   80.2890 C   0  0  0  0  0  0  0  0  0  0  0  0
  1  2  2  0
  1  5  1  0
  2  3  1  0
  3  4  2  0
  4  5  1  0
  4  6  1  0
  6  7  1  0
  7  8  1  0
M  END
>  <PDBID_FRAGID>  (1) 
FRASE_2FDV_D2G_fragment_2

>  <triplet_in_target>  (1) 
PHEA69VALA76PHEA115

$$$$
FRASE_2PS1_ORO_fragment_1_0_ASNA124ILEA156ARGA164
     RDKit          3D

 11 11  0  0  0  0  0  0  0  0999 V2000
   24.5160    8.3730   93.2230 N   0  0  0  0  0  0  0  0  0  0  0  0
   23.5610    8.4920   92.2880 C   0  0  0  0  0  0  0  0  0  0  0  0
   23.8360    8.2110   91.1030 O   0  0  0  0  0  0  0  0  0  0  0  0
   22.3200    8.8990   92.6140 N   0  0  0  0  0  0  0  0  0  0  0  0
   22.0060    9.2020   93.8840 C   0  0  0  0  0  0  0  0  0  0  0  0
   20.8490    9.5810   94.1770 O   0  0  0  0  0  0  0  0  0  0  0  0
   22.9780    9.0940   94.8730 C   0  0  0  0  0  0  0  0  0  0  0  0
   24.2530    8.6660   94.5070 C   0  0  0  0  0  0  0  0  0  0  0  0
   25.3450    8.5220   95.5190 C   0  0  0  0  0  0  0  0  0  0  0  0
   25.4040    9.3140   96.4880 O   0  0  0  0  0  0  0  0  0  0  0  0
   26.1860    7.6100   95.3530 O   0  0  0  0  0  0  0  0  0  0  0  0
  1  2  1  0
  1  8  1  0
  2  3  2  0
  2  4  1  0
  4  5  1  0
  5  6  2  0
  5  7  1  0
  7  8  2  0
  8  9  1  0
  9 10  2  0
  9 11  1  0
M  END
>  <PDBID_FRAGID>  (1) 
FRASE_2PS1_ORO_fragment_1

>  <triplet_in_target>  (1) 
ASNA124ILEA156ARGA164

$$$$
FRASE_4O0O_URF_fragment_1_0_ILEA156ARGA164ILEA168
     RDKit          3D

  9  9  0  0  0  0  0  0  0  0999 V2000
   24.7490    7.5780   92.9100 N   0  0  0  0  0  0  0  0  0  0  0  0
   25.6850    7.3030   93.8330 C   0  0  0  0  0  0  0  0  0  0  0  0
   26.8700    7.9310   93.8500 N   0  0  0  0  0  0  0  0  0  0  0  0
   27.1620    8.8620   92.9370 C   0  0  0  0  0  0  0  0  0  0  0  0
   26.1450    9.1810   91.9080 C   0  0  0  0  0  0  0  0  0  0  0  0
   24.9420    8.4940   91.9510 C   0  0  0  0  0  0  0  0  0  0  0  0
   25.4440    6.4390   94.7020 O   0  0  0  0  0  0  0  0  0  0  0  0
   28.2650    9.4480   92.9500 O   0  0  0  0  0  0  0  0  0  0  0  0
   26.3810   10.1080   90.9630 F   0  0  0  0  0  0  0  0  0  0  0  0
  1  2  1  0
  1  6  1  0
  2  3  1  0
  2  7  2  0
  3  4  1  0
  4  5  1  0
  4  8  2  0
  5  6  2  0
  5  9  1  0
M  END
>  <PDBID_FRAGID>  (1) 
FRASE_4O0O_URF_fragment_1

>  <triplet_in_target>  (1) 
ILEA156ARGA164ILEA168

$$$$
FRASE_4DS8_A8S_fragment_1_0_THRA23LEUA29LEUA92
     RDKit          3D

 18 18  0  0  0  0  0  0  0  0999 V2000
   15.7150   11.1190   56.6250 C   0  0  0  0  0  0  0  0  0  0  0  0
   16.1900    9.7310   56.3770 C   0  0  0  0  0  0  0  0  0  0  0  0
   15.4260    8.6160   56.3580 C   0  0  0  0  0  0  0  0  0  0  0  0
   13.9540    8.6400   56.5600 C   0  0  0  0  0  0  0  0  0  0  0  0
   13.2270    7.5130   56.4940 C   0  0  0  0  0  0  0  0  0  0  0  0
   16.1060    7.2990   56.1130 C   0  0  0  0  0  0  0  0  0  0  0  0
   11.7180    7.4790   56.6830 C   0  0  1  0  0  0  0  0  0  0  0  0
   11.2260    8.8150   56.8750 O   0  0  0  0  0  0  0  0  0  0  0  0
   11.1650    6.9150   55.3800 C   0  0  0  0  0  0  0  0  0  0  0  0
   11.0190    5.5860   55.2100 C   0  0  0  0  0  0  0  0  0  0  0  0
   11.1840    4.6420   56.3380 C   0  0  0  0  0  0  0  0  0  0  0  0
   10.9280    3.4550   56.1670 O   0  0  0  0  0  0  0  0  0  0  0  0
   11.6720    5.1450   57.6840 C   0  0  0  0  0  0  0  0  0  0  0  0
   11.3220    6.6230   57.9060 C   0  0  1  0  0  0  0  0  0  0  0  0
   14.5110   11.4040   56.5380 O   0  0  0  0  0  0  0  0  0  0  0  0
   10.7790    7.8170   54.2400 C   0  0  0  0  0  0  0  0  0  0  0  0
   12.0200    7.1330   59.1630 C   0  0  0  0  0  0  0  0  0  0  0  0
    9.8250    6.7120   58.2170 C   0  0  0  0  0  0  0  0  0  0  0  0
  1  2  1  0
  1 15  1  0
  2  3  2  3
  3  4  1  0
  3  6  1  0
  4  5  2  3
  5  7  1  0
  7  8  1  1
  7  9  1  0
  7 14  1  0
  9 10  2  0
  9 16  1  0
 10 11  1  0
 11 12  2  0
 11 13  1  0
 13 14  1  0
 14 17  1  1
 14 18  1  0
M  END
>  <PDBID_FRAGID>  (1) 
FRASE_4DS8_A8S_fragment_1

>  <triplet_in_target>  (1) 
THRA23LEUA29LEUA92

$$$$
FRASE_4MUL_2DW_fragment_2_0_PHEA69ASPA116LEUA131
     RDKit          3D

 16 17  0  0  0  0  0  0  0  0999 V2000
   10.1590   -0.8640   77.1660 C   0  0  0  0  0  0  0  0  0  0  0  0
    9.9190   -0.6020   78.3550 O   0  0  0  0  0  0  0  0  0  0  0  0
   10.4600   -2.1090   76.8230 N   0  0  0  0  0  0  0  0  0  0  0  0
   10.6600   -3.3700   77.8920 S   0  0  2  0  0  0  0  0  0  0  0  0
   10.2680   -4.6220   77.1910 O   0  0  0  0  0  0  0  0  0  0  0  0
    9.7230   -3.4390   79.0840 O   0  0  0  0  0  0  0  0  0  0  0  0
   12.1590   -3.4600   78.3310 C   0  0  0  0  0  0  0  0  0  0  0  0
   12.4830   -3.4240   79.6850 C   0  0  0  0  0  0  0  0  0  0  0  0
   13.8360   -3.5720   80.0320 C   0  0  0  0  0  0  0  0  0  0  0  0
   14.2020   -3.5340   81.3890 C   0  0  0  0  0  0  0  0  0  0  0  0
   15.5420   -3.6780   81.6900 C   0  0  0  0  0  0  0  0  0  0  0  0
   16.5220   -3.8500   80.6930 C   0  0  0  0  0  0  0  0  0  0  0  0
   16.1720   -3.8770   79.3570 C   0  0  0  0  0  0  0  0  0  0  0  0
   14.8190   -3.7460   79.0330 C   0  0  0  0  0  0  0  0  0  0  0  0
   14.4570   -3.7380   77.6930 C   0  0  0  0  0  0  0  0  0  0  0  0
   13.1070   -3.6010   77.3480 C   0  0  0  0  0  0  0  0  0  0  0  0
  1  2  2  0
  1  3  1  0
  4  3  1  6
  4  5  2  0
  4  6  2  0
  4  7  1  0
  7  8  2  0
  7 16  1  0
  8  9  1  0
  9 10  2  0
  9 14  1  0
 10 11  1  0
 11 12  2  0
 12 13  1  0
 13 14  2  0
 14 15  1  0
 15 16  2  0
M  END
>  <PDBID_FRAGID>  (1) 
FRASE_4MUL_2DW_fragment_2

>  <triplet_in_target>  (1) 
PHEA69ASPA116LEUA131

$$$$
FRASE_5EVY_SAL_fragment_1_0_ILEA27ARGA32PHEA88
     RDKit          3D

 10 10  0  0  0  0  0  0  0  0999 V2000
   -3.3790    4.1030   50.9860 C   0  0  0  0  0  0  0  0  0  0  0  0
   -3.0560    5.0130   51.7820 O   0  0  0  0  0  0  0  0  0  0  0  0
   -3.1410    4.1870   49.7490 O   0  0  0  0  0  0  0  0  0  0  0  0
   -4.0290    2.8740   51.5810 C   0  0  0  0  0  0  0  0  0  0  0  0
   -4.5580    1.7390   50.7370 C   0  0  0  0  0  0  0  0  0  0  0  0
   -5.1190    0.6340   51.3870 C   0  0  0  0  0  0  0  0  0  0  0  0
   -5.1750    0.6060   52.7830 C   0  0  0  0  0  0  0  0  0  0  0  0
   -4.6820    1.6630   53.5660 C   0  0  0  0  0  0  0  0  0  0  0  0
   -4.1120    2.7800   52.9790 C   0  0  0  0  0  0  0  0  0  0  0  0
   -4.5000    1.7620   49.3670 O   0  0  0  0  0  0  0  0  0  0  0  0
  1  2  2  0
  1  3  1  0
  1  4  1  0
  4  5  2  0
  4  9  1  0
  5  6  1  0
  5 10  1  0
  6  7  2  0
  7  8  1  0
  8  9  2  0
M  END
>  <PDBID_FRAGID>  (1) 
FRASE_5EVY_SAL_fragment_1

>  <triplet_in_target>  (1) 
ILEA27ARGA32PHEA88

$$$$
FRASE_3UDJ_092_fragment_1_0_ILEA114ASPA118THRA122
     RDKit          3D

 17 19  0  0  0  0  0  0  0  0999 V2000
   12.1620   13.3240   77.8660 C   0  0  0  0  0  0  0  0  0  0  0  0
   11.4870   14.4650   78.2480 C   0  0  0  0  0  0  0  0  0  0  0  0
   11.8210   12.0940   78.3920 C   0  0  0  0  0  0  0  0  0  0  0  0
   10.4420   14.3930   79.1350 C   0  0  0  0  0  0  0  0  0  0  0  0
   10.7700   12.0250   79.2720 C   0  0  0  0  0  0  0  0  0  0  0  0
   10.1190   13.1600   79.6420 C   0  0  0  0  0  0  0  0  0  0  0  0
    9.1790   11.5000   80.8940 C   0  0  0  0  0  0  0  0  0  0  0  0
    8.8400    7.9650   80.6970 C   0  0  0  0  0  0  0  0  0  0  0  0
    9.5090    9.8370   79.1160 C   0  0  0  0  0  0  0  0  0  0  0  0
   11.2970   10.1200   80.7620 C   0  0  0  0  0  0  0  0  0  0  0  0
    9.8490    8.4840   79.7050 C   0  0  1  0  0  0  0  0  0  0  0  0
   10.2090   10.8500   79.9980 C   0  0  1  0  0  0  0  0  0  0  0  0
    9.1330   12.8520   80.5900 N   0  0  0  0  0  0  0  0  0  0  0  0
   11.1510    8.6740   80.4060 N   0  0  0  0  0  0  0  0  0  0  0  0
    8.4200   10.8960   81.6450 O   0  0  0  0  0  0  0  0  0  0  0  0
    9.1390    7.5180   81.7890 O   0  0  0  0  0  0  0  0  0  0  0  0
    7.5680    7.9900   80.2320 O   0  0  0  0  0  0  0  0  0  0  0  0
  1  2  2  0
  1  3  1  0
  2  4  1  0
  3  5  2  0
  4  6  2  0
  5  6  1  0
  5 12  1  0
  6 13  1  0
  7 12  1  0
  7 13  1  0
  7 15  2  0
 11  8  1  1
  8 16  2  0
  8 17  1  0
  9 11  1  0
 12  9  1  6
 10 12  1  0
 10 14  1  0
 11 14  1  0
M  END
>  <PDBID_FRAGID>  (1) 
FRASE_3UDJ_092_fragment_1

>  <triplet_in_target>  (1) 
ILEA114ASPA118THRA122

$$$$
